@<TRIPOS>MOLECULE
MOL
  175   173     1     0     0
SMALL
resp


@<TRIPOS>ATOM
      1 C1         -6.0670    7.8910    1.4820 c3        1 MOL     -0.398331
      2 C2         -6.8830    7.0050    0.5250 c         1 MOL      0.739498
      3 O1         -6.9400    7.2990   -0.6710 o         1 MOL     -0.597015
      4 H1         -6.6560    8.7660    1.7580 hc        1 MOL      0.096544
      5 H2         -5.8180    7.3230    2.3780 hc        1 MOL      0.096544
      6 H3         -5.1500    8.2120    0.9880 hc        1 MOL      0.096544
      7 N1         -7.5900    5.9650    0.9830 n         1 MOL     -0.617228
      8 C3         -8.4670    5.1120    0.1480 c3        1 MOL      0.300540
      9 C4         -7.6670    4.0790   -0.6660 c         1 MOL      0.391205
     10 O2         -8.0740    2.9460   -0.8420 o         1 MOL     -0.505032
     11 C5         -9.5250    4.5200    1.1220 c3        1 MOL     -0.149850
     12 C6        -10.6990    3.8780    0.4130 c         1 MOL      0.669973
     13 O3        -11.3660    2.9040    0.8870 o         1 MOL     -0.717088
     14 O4        -11.1180    4.5300   -0.6020 o         1 MOL     -0.717088
     15 H4         -7.4970    5.6800    1.9490 hn        1 MOL      0.297084
     16 H5         -9.0900    5.7180   -0.5100 h1        1 MOL      0.010127
     17 H6         -9.8280    5.1790    1.9310 hc        1 MOL      0.002529
     18 H7         -9.0900    3.6570    1.6350 hc        1 MOL      0.002529
     19 N2         -6.4410    4.4490   -1.0330 n         1 MOL     -0.369031
     20 C7         -5.5010    3.4980   -1.5500 c3        1 MOL      0.343342
     21 C8         -4.7660    2.7920   -0.3710 c         1 MOL      0.535014
     22 O5         -4.1860    3.4180    0.4950 o         1 MOL     -0.559657
     23 C9         -4.5410    4.3460   -2.3800 c3        1 MOL     -0.497868
     24 H8         -6.1150    5.3970   -0.8790 hn        1 MOL      0.192683
     25 H9         -6.0360    2.7920   -2.1880 h1        1 MOL      0.033712
     26 H10        -4.9680    4.5270   -3.3680 hc        1 MOL      0.124684
     27 H11        -4.3600    5.3180   -1.9050 hc        1 MOL      0.124684
     28 H12        -3.5450    3.9260   -2.3270 hc        1 MOL      0.124684
     29 N3         -4.9290    1.4560   -0.2560 n         1 MOL     -0.408522
     30 C10        -5.4770    0.5230   -1.2300 c3        1 MOL     -0.177387
     31 C11        -5.7320   -0.8960   -0.6100 c         1 MOL      0.668332
     32 O6         -5.0850   -1.2940    0.3470 o         1 MOL     -0.561586
     33 C12        -4.4610    0.3040   -2.4140 c3        1 MOL     -0.072356
     34 C13        -3.0020   -0.0190   -2.0390 c         1 MOL      0.692061
     35 O7         -2.4620    0.5410   -1.0620 o         1 MOL     -0.735929
     36 O8         -2.3420   -0.8110   -2.6960 o         1 MOL     -0.735929
     37 H13        -4.3990    1.0380    0.5010 hn        1 MOL      0.268330
     38 H14        -6.4240    0.8790   -1.6370 h1        1 MOL      0.080329
     39 H15        -4.4850    1.0480   -3.2130 hc        1 MOL      0.020472
     40 H16        -4.8480   -0.5280   -2.9960 hc        1 MOL      0.020472
     41 N4         -6.7210   -1.5560   -1.0810 n         1 MOL     -0.395053
     42 C14        -7.2420   -2.7840   -0.4660 c3        1 MOL     -0.050163
     43 C15        -7.1850   -3.9400   -1.4520 c         1 MOL      0.601085
     44 O9         -8.2160   -4.5120   -1.7100 o         1 MOL     -0.542408
     45 H17        -7.2620   -1.1940   -1.8520 hn        1 MOL      0.301574
     46 H18        -8.2640   -2.5150   -0.1990 h1        1 MOL      0.096259
     47 H19        -6.7920   -3.0420    0.4900 h1        1 MOL      0.096259
     48 N5         -5.9810   -4.4460   -1.8480 n         1 MOL     -0.642124
     49 C16        -4.6730   -4.1410   -1.2890 c3        1 MOL      0.245078
     50 C17        -4.5950   -4.6580    0.1370 c         1 MOL      0.400851
     51 O10        -5.0550   -5.8150    0.5220 o         1 MOL     -0.539381
     52 C18        -3.5580   -4.7180   -2.1430 c3        1 MOL     -0.312438
     53 C19        -2.2190   -4.0090   -1.8630 c         1 MOL      0.599477
     54 N6         -1.2770   -4.0540   -2.7380 n         1 MOL     -0.631215
     55 O11        -1.9910   -3.2980   -0.8640 o         1 MOL     -0.506892
     56 H20        -6.0000   -5.3460   -2.3040 hn        1 MOL      0.343194
     57 H21        -4.4910   -3.0570   -1.2690 h1        1 MOL      0.030627
     58 H22        -3.8230   -4.5570   -3.1960 hc        1 MOL      0.106052
     59 H23        -3.3200   -5.7650   -1.9560 hc        1 MOL      0.106052
     60 H24        -1.3250   -4.7090   -3.5080 hn        1 MOL      0.317832
     61 H25        -0.3810   -3.7700   -2.3590 hn        1 MOL      0.317832
     62 N7         -4.0840   -3.8180    1.0890 n         1 MOL     -0.087569
     63 C20        -3.8690   -4.1680    2.4850 c3        1 MOL     -0.343512
     64 C21        -2.4460   -4.7100    2.7730 c         1 MOL      0.582953
     65 O12        -2.2110   -5.3330    3.7930 o         1 MOL     -0.579063
     66 H26        -4.0310   -2.8550    0.7960 hn        1 MOL      0.158582
     67 H27        -4.5420   -4.9800    2.7810 h1        1 MOL      0.135841
     68 H28        -4.0440   -3.2910    3.0900 h1        1 MOL      0.135841
     69 N8         -1.5900   -4.5790    1.7460 n         1 MOL     -0.089812
     70 C22        -0.1490   -4.9410    1.8830 c3        1 MOL     -0.142742
     71 C23         0.8100   -3.7210    1.8290 c         1 MOL      0.335468
     72 O13         0.5580   -2.8340    1.0310 o         1 MOL     -0.401475
     73 C24         0.3130   -5.9880    0.8610 c3        1 MOL      0.576842
     74 C25        -0.2910   -7.3260    1.1670 c3        1 MOL     -0.392076
     75 O14         0.0340   -5.7120   -0.4920 oh        1 MOL     -0.662154
     76 H29        -1.8880   -3.9350    1.0390 hn        1 MOL      0.007193
     77 H30        -0.0090   -5.3130    2.9070 h1        1 MOL      0.046424
     78 H31         1.3640   -6.2650    0.9830 h1        1 MOL     -0.034860
     79 H32         0.6350   -5.0160   -0.7930 ho        1 MOL      0.397747
     80 H33         0.1090   -8.0530    0.4550 hc        1 MOL      0.079977
     81 H34         0.1380   -7.5680    2.1370 hc        1 MOL      0.079977
     82 H35        -1.3700   -7.2050    1.0820 hc        1 MOL      0.079977
     83 N9          1.9250   -3.7050    2.5520 n         1 MOL     -0.371025
     84 C26         2.9610   -2.5820    2.4140 c3        1 MOL      0.046962
     85 C27         3.8490   -2.9740    1.1960 c         1 MOL      0.176289
     86 O15         4.5290   -3.9720    1.2360 o         1 MOL     -0.534061
     87 C28         3.7280   -2.4340    3.7660 c3        1 MOL      0.297984
     88 C29         5.0360   -1.6410    3.7070 c3        1 MOL      0.042448
     89 C30         2.7880   -1.9950    4.9080 c3        1 MOL     -0.452442
     90 C31         5.0020   -0.1580    3.4550 c3        1 MOL     -0.387913
     91 H36         2.0760   -4.5070    3.1420 hn        1 MOL      0.288843
     92 H37         2.4850   -1.6340    2.1970 h1        1 MOL      0.094728
     93 H38         4.0210   -3.4510    4.0420 hc        1 MOL     -0.055242
     94 H39         5.7770   -2.1290    3.0650 hc        1 MOL      0.002992
     95 H40         5.4720   -1.8340    4.6850 hc        1 MOL      0.002992
     96 H41         2.1490   -1.1870    4.5520 hc        1 MOL      0.107372
     97 H42         2.1750   -2.8480    5.2180 hc        1 MOL      0.107372
     98 H43         3.3900   -1.6990    5.7610 hc        1 MOL      0.107372
     99 H44         6.0440    0.1530    3.4440 hc        1 MOL      0.085568
    100 H45         4.6370    0.0680    2.4550 hc        1 MOL      0.085568
    101 H46         4.5520    0.3500    4.3180 hc        1 MOL      0.085568
    102 N10         3.7050   -2.2830    0.0710 n         1 MOL      0.081043
    103 C32         4.3190   -2.6360   -1.2630 c3        1 MOL      0.115219
    104 C33         5.5840   -1.8620   -1.5930 c         1 MOL      0.514735
    105 O16         6.0680   -1.8790   -2.7610 o         1 MOL     -0.547552
    106 C34         3.3150   -2.5610   -2.4160 c3        1 MOL     -0.408102
    107 C35         1.9970   -3.1640   -2.0960 c         1 MOL      0.873134
    108 O17         2.0040   -4.3950   -1.7480 o         1 MOL     -0.732341
    109 O18         0.9470   -2.5290   -2.0900 o         1 MOL     -0.732341
    110 H47         3.1150   -1.4670    0.0730 hn        1 MOL      0.094924
    111 H48         4.6830   -3.6580   -1.1620 h1        1 MOL      0.068813
    112 H49         3.7250   -3.0970   -3.2690 hc        1 MOL      0.097837
    113 H50         3.1640   -1.4980   -2.6010 hc        1 MOL      0.097837
    114 N11         6.0360   -0.9540   -0.7170 n         1 MOL     -0.675613
    115 C36         6.9510    0.1120   -1.1270 c3        1 MOL      0.393222
    116 C37         6.8580    1.4300   -0.2650 c         1 MOL      0.326004
    117 O19         6.8390    1.2940    0.9670 o         1 MOL     -0.506429
    118 C38         8.3680   -0.3630   -1.0490 c3        1 MOL     -0.258972
    119 C39         9.4110    0.5660   -1.6350 ca        1 MOL      0.152279
    120 C40        10.2390    1.2840   -0.7060 ca        1 MOL     -0.226411
    121 C41         9.5050    0.7730   -3.0270 ca        1 MOL     -0.226411
    122 C42        11.1780    2.1530   -1.2680 ca        1 MOL     -0.019240
    123 C43        10.4060    1.7580   -3.5040 ca        1 MOL     -0.019240
    124 C44        11.3330    2.3300   -2.6260 ca        1 MOL     -0.203417
    125 H51         5.5430   -0.8170    0.1580 hn        1 MOL      0.390204
    126 H52         6.6430    0.3210   -2.1490 h1        1 MOL      0.003772
    127 H53         8.4450   -1.3710   -1.4630 hc        1 MOL      0.093895
    128 H54         8.5630   -0.4780    0.0240 hc        1 MOL      0.093895
    129 H55        10.0750    1.0140    0.3340 ha        1 MOL      0.138995
    130 H56         8.9360    0.1220   -3.6650 ha        1 MOL      0.138995
    131 H57        11.8310    2.6450   -0.5590 ha        1 MOL      0.082126
    132 H58        10.4740    1.9280   -4.5660 ha        1 MOL      0.082126
    133 H59        12.0850    2.9540   -3.0890 ha        1 MOL      0.117541
    134 N12         6.7060    2.6100   -0.8910 n         1 MOL     -0.007858
    135 C45         6.7900    3.9860   -0.2810 c3        1 MOL     -0.079180
    136 C46         5.6630    4.4820    0.5360 c         1 MOL      0.560101
    137 O20         5.6990    5.5460    1.1150 o         1 MOL     -0.561021
    138 C47         7.1250    4.9930   -1.4190 c3        1 MOL      0.016493
    139 C48         6.7200    4.3050   -2.7170 c3        1 MOL      0.073566
    140 C49         6.7230    2.8410   -2.3330 c3        1 MOL     -0.265852
    141 H60         7.6360    3.8670    0.3880 h1        1 MOL      0.068094
    142 H61         6.6390    5.9700   -1.3690 hc        1 MOL      0.018080
    143 H62         8.1970    5.1180   -1.2920 hc        1 MOL      0.018080
    144 H63         5.7330    4.7220   -2.9170 hc        1 MOL      0.017066
    145 H64         7.4300    4.5440   -3.5090 hc        1 MOL      0.017066
    146 H65         5.8920    2.3650   -2.8660 h1        1 MOL      0.091293
    147 H66         7.6380    2.3850   -2.7320 h1        1 MOL      0.091293
    148 N13         4.6660    3.6110    0.7070 n         1 MOL     -0.238290
    149 C50         3.3180    4.0750    1.1520 c3        1 MOL     -0.259896
    150 C51         3.3590    4.5620    2.6640 c         1 MOL      0.578165
    151 O21         2.5090    5.3410    3.0850 o         1 MOL     -0.522972
    152 C52         2.2960    3.0220    0.8070 c3        1 MOL      0.015954
    153 C53         2.4840    1.7620    1.5540 c3        1 MOL      0.012516
    154 C54         1.5510    0.6310    0.9020 c         1 MOL      0.706390
    155 O22         1.9800   -0.2200    0.1360 o         1 MOL     -0.775874
    156 O23         0.3020    0.6100    1.1190 o         1 MOL     -0.775874
    157 H67         4.7390    2.6460    0.4280 hn        1 MOL      0.130480
    158 H68         3.0630    4.9680    0.5920 h1        1 MOL      0.143077
    159 H69         2.2470    2.8560   -0.2740 hc        1 MOL      0.040551
    160 H70         1.3250    3.4140    1.1040 hc        1 MOL      0.040551
    161 H71         2.3240    1.7680    2.6280 hc        1 MOL     -0.002231
    162 H72         3.5360    1.4910    1.4120 hc        1 MOL     -0.002231
    163 N14         4.3920    4.1470    3.4560 n         1 MOL     -0.262278
    164 C55         4.5830    4.5670    4.8470 c3        1 MOL     -0.190541
    165 H73         4.8100    5.6320    4.8770 h1        1 MOL      0.091627
    166 H74         3.6710    4.3740    5.4140 h1        1 MOL      0.091627
    167 H75         5.4100    4.0080    5.2860 h1        1 MOL      0.091627
    168 H76         5.2050    3.7580    2.9970 hn        1 MOL      0.234253
    169 Ca1        -0.4950   -1.0240   -0.5760 Ca        1 MOL      1.722206
    170 O24         0.7330    0.7380   -2.5100 oh        1 MOL     -0.790032
    171 H77         1.2730    0.8270   -3.2980 ho        1 MOL      0.396008
    172 H78         0.7950    1.5910   -2.0850 ho        1 MOL      0.396008
    173 O25        -2.3570   -1.4310    1.3340 oh        1 MOL     -0.790032
    174 H79        -2.2210   -0.9440    2.1480 ho        1 MOL      0.396008
    175 H80        -3.2990   -1.3350    1.1590 ho        1 MOL      0.396008
@<TRIPOS>BOND
     1    1    2 1   
     2    1    4 1   
     3    1    5 1   
     4    1    6 1   
     5    2    3 2   
     6    2    7 1   
     7    7    8 1   
     8    7   15 1   
     9    8    9 1   
    10    8   11 1   
    11    8   16 1   
    12    9   10 2   
    13    9   19 1   
    14   11   12 1   
    15   11   17 1   
    16   11   18 1   
    17   12   13 1   
    18   12   14 1   
    19   19   20 1   
    20   19   24 1   
    21   20   21 1   
    22   20   23 1   
    23   20   25 1   
    24   21   22 2   
    25   21   29 1   
    26   23   26 1   
    27   23   27 1   
    28   23   28 1   
    29   29   30 1   
    30   29   37 1   
    31   30   31 1   
    32   30   33 1   
    33   30   38 1   
    34   31   32 2   
    35   31   41 1   
    36   33   34 1   
    37   33   39 1   
    38   33   40 1   
    39   34   35 1   
    40   34   36 1   
    41   41   42 1   
    42   41   45 1   
    43   42   43 1   
    44   42   46 1   
    45   42   47 1   
    46   43   44 2   
    47   43   48 1   
    48   48   49 1   
    49   48   56 1   
    50   49   50 1   
    51   49   52 1   
    52   49   57 1   
    53   50   51 2   
    54   50   62 1   
    55   52   53 1   
    56   52   58 1   
    57   52   59 1   
    58   53   54 1   
    59   53   55 2   
    60   54   60 1   
    61   54   61 1   
    62   62   63 1   
    63   62   66 1   
    64   63   64 1   
    65   63   67 1   
    66   63   68 1   
    67   64   65 2   
    68   64   69 1   
    69   69   70 1   
    70   69   76 1   
    71   70   71 1   
    72   70   73 1   
    73   70   77 1   
    74   71   72 2   
    75   71   83 1   
    76   73   74 1   
    77   73   75 1   
    78   73   78 1   
    79   74   80 1   
    80   74   81 1   
    81   74   82 1   
    82   75   79 1   
    83   83   84 1   
    84   83   91 1   
    85   84   85 1   
    86   84   87 1   
    87   84   92 1   
    88   85   86 2   
    89   85  102 1   
    90   87   88 1   
    91   87   89 1   
    92   87   93 1   
    93   88   90 1   
    94   88   94 1   
    95   88   95 1   
    96   89   96 1   
    97   89   97 1   
    98   89   98 1   
    99   90   99 1   
   100   90  100 1   
   101   90  101 1   
   102  102  103 1   
   103  102  110 1   
   104  103  104 1   
   105  103  106 1   
   106  103  111 1   
   107  104  105 2   
   108  104  114 1   
   109  106  107 1   
   110  106  112 1   
   111  106  113 1   
   112  107  108 1   
   113  107  109 1   
   114  114  115 1   
   115  114  125 1   
   116  115  116 1   
   117  115  118 1   
   118  115  126 1   
   119  116  117 2   
   120  116  134 1   
   121  118  119 1   
   122  118  127 1   
   123  118  128 1   
   124  119  120 ar  
   125  119  121 ar  
   126  120  122 ar  
   127  120  129 1   
   128  121  123 ar  
   129  121  130 1   
   130  122  124 ar  
   131  122  131 1   
   132  123  124 ar  
   133  123  132 1   
   134  124  133 1   
   135  134  135 1   
   136  134  140 1   
   137  135  136 1   
   138  135  138 1   
   139  135  141 1   
   140  136  137 2   
   141  136  148 1   
   142  138  139 1   
   143  138  142 1   
   144  138  143 1   
   145  139  140 1   
   146  139  144 1   
   147  139  145 1   
   148  140  146 1   
   149  140  147 1   
   150  148  149 1   
   151  148  157 1   
   152  149  150 1   
   153  149  152 1   
   154  149  158 1   
   155  150  151 2   
   156  150  163 1   
   157  152  153 1   
   158  152  159 1   
   159  152  160 1   
   160  153  154 1   
   161  153  161 1   
   162  153  162 1   
   163  154  155 1   
   164  154  156 1   
   165  163  164 1   
   166  163  168 1   
   167  164  165 1   
   168  164  166 1   
   169  164  167 1   
   170  170  171 1   
   171  170  172 1   
   172  173  174 1   
   173  173  175 1   
@<TRIPOS>SUBSTRUCTURE
     1 MOL         1 TEMP              0 ****  ****    0 ROOT
