@<TRIPOS>MOLECULE
MOL
  185   180     1     0     0
SMALL
resp


@<TRIPOS>ATOM
      1 C1         -6.0800    1.1950   -3.1160 c3        1 MOL     -0.418034
      2 C2         -6.6810    1.4590   -1.7560 c         1 MOL      0.675176
      3 O1         -5.9270    1.4940   -0.7940 o         1 MOL     -0.491336
      4 H1         -5.0000    1.3320   -3.0690 hc        1 MOL      0.102723
      5 H2         -6.3040    0.1720   -3.4190 hc        1 MOL      0.102723
      6 H3         -6.5030    1.8900   -3.8420 hc        1 MOL      0.102723
      7 N1         -8.0000    1.5190   -1.6830 n         1 MOL     -0.594676
      8 C3         -8.6480    1.6790   -0.4110 c3        1 MOL     -0.012890
      9 C4         -8.5630    0.4170    0.5830 c         1 MOL      0.384805
     10 O2         -8.9230    0.5640    1.7640 o         1 MOL     -0.482788
     11 C5         -8.3000    3.0430    0.3230 c3        1 MOL     -0.114545
     12 C6         -8.2550    4.1950   -0.6070 c         1 MOL      0.685126
     13 O3         -7.6730    5.2120   -0.1450 o         1 MOL     -0.653736
     14 O4         -9.1420    4.3120   -1.5160 o         1 MOL     -0.653736
     15 H4         -8.5120    1.4480   -2.5490 hn        1 MOL      0.341089
     16 H5         -9.7080    1.6930   -0.6760 h1        1 MOL      0.097277
     17 H6         -7.3230    3.0090    0.8010 hc        1 MOL      0.073337
     18 H7         -8.8790    3.2010    1.2250 hc        1 MOL      0.073337
     19 N2         -8.1390   -0.7590    0.0310 n         1 MOL     -0.325930
     20 C7         -7.8620   -1.9110    0.9090 c3        1 MOL      0.111545
     21 C8         -6.3830   -2.2400    1.1560 c         1 MOL      0.579639
     22 O5         -6.0380   -3.1880    1.8190 o         1 MOL     -0.573393
     23 C9         -8.5840   -3.1570    0.3570 c3        1 MOL     -0.197077
     24 C10       -10.1210   -3.0340    0.2880 c3        1 MOL     -0.039911
     25 C11       -10.7950   -4.3920   -0.0650 c3        1 MOL     -0.097781
     26 C12       -10.5260   -4.8230   -1.5270 c3        1 MOL      0.068484
     27 N3        -11.1400   -6.1390   -1.9860 n4        1 MOL     -0.342918
     28 H8         -7.9960   -0.8450   -0.9640 hn        1 MOL      0.232228
     29 H9         -8.2700   -1.7550    1.9010 h1        1 MOL      0.094999
     30 H10        -8.3710   -3.9130    1.1220 hc        1 MOL      0.063410
     31 H11        -8.1730   -3.4720   -0.6090 hc        1 MOL      0.063410
     32 H12       -10.4880   -2.2250   -0.3500 hc        1 MOL      0.064494
     33 H13       -10.4600   -2.8820    1.3170 hc        1 MOL      0.064494
     34 H14       -11.8570   -4.2500    0.1180 hc        1 MOL      0.059855
     35 H15       -10.5000   -5.2170    0.5850 hc        1 MOL      0.059855
     36 H16        -9.4440   -4.8710   -1.6620 hx        1 MOL      0.062636
     37 H17       -10.8260   -3.9820   -2.1430 hx        1 MOL      0.062636
     38 H18       -10.8790   -6.9070   -1.3940 hn        1 MOL      0.306393
     39 H19       -12.1370   -6.0630   -1.8250 hn        1 MOL      0.306393
     40 H20       -10.9620   -6.3460   -2.9500 hn        1 MOL      0.306393
     41 N4         -5.4810   -1.4920    0.5440 n         1 MOL     -0.497476
     42 C13        -4.0010   -1.6820    0.4480 c3        1 MOL      0.044426
     43 C14        -3.3270   -2.1540    1.7610 c         1 MOL      0.515237
     44 O6         -3.4460   -1.5130    2.8290 o         1 MOL     -0.503951
     45 C15        -3.2880   -0.3880   -0.0530 c3        1 MOL     -0.276239
     46 C16        -1.8530   -0.6010   -0.4440 c         1 MOL      0.736479
     47 O7         -1.6120   -0.8190   -1.6210 o         1 MOL     -0.696874
     48 O8         -0.9850   -0.7270    0.4630 o         1 MOL     -0.696874
     49 H21        -5.8600   -0.6630    0.0840 hn        1 MOL      0.270117
     50 H22        -3.9140   -2.5160   -0.2460 h1        1 MOL      0.062959
     51 H23        -3.3520    0.3700    0.7270 hc        1 MOL      0.127712
     52 H24        -3.8320   -0.1540   -0.9690 hc        1 MOL      0.127712
     53 N5         -2.5830   -3.1990    1.6800 n         1 MOL     -0.160385
     54 C17        -2.0160   -3.9200    2.8240 c3        1 MOL     -0.166615
     55 C18        -0.9060   -3.1720    3.5460 c         1 MOL      0.483858
     56 O9         -0.4300   -3.7380    4.6040 o         1 MOL     -0.562481
     57 H25        -2.5890   -3.6170    0.7630 hn        1 MOL      0.163804
     58 H26        -1.6800   -4.9060    2.4880 h1        1 MOL      0.117448
     59 H27        -2.8650   -4.2450    3.4130 h1        1 MOL      0.117448
     60 N6         -0.4850   -2.0210    3.0990 n         1 MOL     -0.186760
     61 C19         0.3690   -1.1390    3.8840 c3        1 MOL      0.107594
     62 C20         0.0080    0.3630    3.7170 c         1 MOL      0.425524
     63 O10         0.7380    1.2950    4.0030 o         1 MOL     -0.500197
     64 C21         1.8670   -1.4590    3.7280 c3        1 MOL     -0.389661
     65 C22         2.5260   -0.9250    2.5320 c         1 MOL      0.860385
     66 N7          3.6620   -0.2770    2.6610 n         1 MOL     -0.779861
     67 O11         2.0180   -1.0360    1.4500 o         1 MOL     -0.790604
     68 H28        -0.9300   -1.6680    2.2690 hn        1 MOL      0.126356
     69 H29         0.1310   -1.3540    4.9290 h1        1 MOL      0.082479
     70 H30         2.1280   -2.5110    3.8470 hc        1 MOL      0.113681
     71 H31         2.3630   -0.8930    4.5150 hc        1 MOL      0.113681
     72 H32         4.1300   -0.2330    3.5590 hn        1 MOL      0.337748
     73 H33         4.0430    0.1650    1.8350 hn        1 MOL      0.337748
     74 N8         -1.2430    0.5820    3.1740 n         1 MOL     -0.157990
     75 C23        -1.7520    1.9280    3.0330 c3        1 MOL     -0.201999
     76 C24        -1.0700    2.8070    2.0750 c         1 MOL      0.527391
     77 O12        -0.9480    4.0210    2.3320 o         1 MOL     -0.564817
     78 H34        -1.8320   -0.2070    2.9540 hn        1 MOL      0.067868
     79 H35        -1.7370    2.4100    4.0160 h1        1 MOL      0.127603
     80 H36        -2.8090    1.8500    2.7990 h1        1 MOL      0.127603
     81 N9         -0.5630    2.2890    0.9460 n         1 MOL     -0.242402
     82 C25         0.0370    3.0430   -0.1710 c3        1 MOL      0.112674
     83 C26         1.3680    2.3760   -0.5790 c         1 MOL      0.116781
     84 O13         1.4790    1.1190   -0.6150 o         1 MOL     -0.254885
     85 C27        -0.9760    2.9950   -1.3690 c3        1 MOL      0.089379
     86 C28        -2.2340    3.8480   -1.3850 ca        1 MOL      0.074258
     87 C29        -2.2680    4.9400   -2.2410 ca        1 MOL     -0.277751
     88 C30        -3.2640    3.6400   -0.4460 ca        1 MOL     -0.277751
     89 C31        -3.4020    5.7370   -2.1950 ca        1 MOL     -0.153812
     90 C32        -4.3650    4.5280   -0.3580 ca        1 MOL     -0.153812
     91 C33        -4.4930    5.4640   -1.3540 ca        1 MOL      0.372788
     92 O14        -5.5950    6.2060   -1.4800 oh        1 MOL     -0.584541
     93 H37        -0.5930    1.2830    0.8580 hn        1 MOL      0.174639
     94 H38         0.2970    4.0490    0.1580 h1        1 MOL      0.047163
     95 H39        -1.2980    1.9780   -1.5820 hc        1 MOL     -0.056491
     96 H40        -0.3470    3.2930   -2.2100 hc        1 MOL     -0.056491
     97 H41        -1.4630    5.1750   -2.9220 ha        1 MOL      0.134671
     98 H42        -3.1280    2.8810    0.3100 ha        1 MOL      0.134671
     99 H43        -3.4670    6.4790   -2.9790 ha        1 MOL      0.103010
    100 H44        -5.1860    4.4640    0.3340 ha        1 MOL      0.103010
    101 H45        -6.2960    5.9430   -0.8750 ho        1 MOL      0.427016
    102 N10         2.3800    3.1750   -0.9600 n         1 MOL     -0.181752
    103 C34         3.6370    2.5240   -1.3480 c3        1 MOL     -0.114114
    104 C35         4.4560    2.2830   -0.0350 c         1 MOL      0.442850
    105 O15         4.7810    1.1310    0.2520 o         1 MOL     -0.435992
    106 C36         4.3630    3.3670   -2.3870 c3        1 MOL      0.063891
    107 C37         3.4870    3.8490   -3.5920 c3        1 MOL     -0.014212
    108 C38         5.5160    2.5180   -2.9840 c3        1 MOL     -0.225929
    109 C39         2.7750    2.7250   -4.3900 c3        1 MOL     -0.065219
    110 H46         2.4220    4.1800   -0.8980 hn        1 MOL      0.263581
    111 H47         3.4790    1.5520   -1.8120 h1        1 MOL      0.010343
    112 H48         4.9170    4.1620   -1.8790 hc        1 MOL     -0.019411
    113 H49         4.0580    4.5030   -4.2480 hc        1 MOL      0.010834
    114 H50         2.6350    4.3880   -3.1920 hc        1 MOL      0.010834
    115 H51         6.1750    2.3920   -2.1170 hc        1 MOL      0.066248
    116 H52         5.2190    1.4910   -3.1840 hc        1 MOL      0.066248
    117 H53         5.9950    2.8850   -3.8980 hc        1 MOL      0.066248
    118 H54         2.2200    1.9950   -3.7880 hc        1 MOL      0.034767
    119 H55         2.0950    3.1200   -5.1450 hc        1 MOL      0.034767
    120 H56         3.5270    2.1770   -4.9540 hc        1 MOL      0.034767
    121 N11         4.6690    3.3510    0.7230 n         1 MOL     -0.205962
    122 C40         5.5140    3.3110    1.9600 c3        1 MOL     -0.065989
    123 C41         6.8250    2.5550    1.9420 c         1 MOL      0.568958
    124 O16         7.0440    1.8160    2.8890 o         1 MOL     -0.531084
    125 C42         5.7390    4.6970    2.5480 c3        1 MOL     -0.031857
    126 O17         6.1130    5.6950    1.6560 oh        1 MOL     -0.604745
    127 H57         4.0180    4.1000    0.5540 hn        1 MOL      0.249672
    128 H58         4.9170    2.7600    2.6820 h1        1 MOL      0.083781
    129 H59         6.4670    4.6010    3.3590 h1        1 MOL      0.093286
    130 H60         4.7690    4.9120    3.0000 h1        1 MOL      0.093286
    131 H61         6.0670    6.4750    2.2180 ho        1 MOL      0.432857
    132 N12         7.6090    2.6180    0.8950 n         1 MOL     -0.315534
    133 C43         8.9140    1.8530    0.7280 c3        1 MOL     -0.005419
    134 C44         8.8430    0.3190    0.8440 c         1 MOL      0.654210
    135 O18         9.8050   -0.4200    1.0200 o         1 MOL     -0.526659
    136 C45        10.0640    2.3860    1.5410 c3        1 MOL     -0.309720
    137 H62         7.3570    3.3010    0.1980 hn        1 MOL      0.283351
    138 H63         9.1640    2.0510   -0.3110 h1        1 MOL      0.091199
    139 H64        10.0250    2.2000    2.6180 hc        1 MOL      0.104728
    140 H65        10.9240    1.8640    1.1250 hc        1 MOL      0.104728
    141 H66        10.2070    3.4630    1.4090 hc        1 MOL      0.104728
    142 N13         7.6160   -0.3060    0.7080 n         1 MOL     -0.739325
    143 C46         7.4990   -1.7760    0.7500 c3        1 MOL      0.551469
    144 C47         6.8010   -2.3790   -0.5150 c         1 MOL      0.282153
    145 O19         6.2890   -1.6770   -1.4410 o         1 MOL     -0.429614
    146 C48         6.6100   -1.9950    2.0130 c3        1 MOL     -0.565983
    147 H67         6.7560    0.2040    0.8300 hn        1 MOL      0.253842
    148 H68         8.4960   -2.1870    0.8650 h1        1 MOL     -0.011918
    149 H69         5.6870   -1.4230    1.9030 hc        1 MOL      0.158458
    150 H70         6.3930   -3.0600    2.1100 hc        1 MOL      0.158458
    151 H71         7.0610   -1.6700    2.9440 hc        1 MOL      0.158458
    152 N14         6.8320   -3.6730   -0.5780 n         1 MOL     -0.458971
    153 C49         6.2080   -4.4030   -1.6860 c3        1 MOL      0.045511
    154 C50         6.7810   -4.1090   -3.1270 c         1 MOL      0.437224
    155 O20         6.1610   -4.4860   -4.1540 o         1 MOL     -0.511599
    156 C51         4.6720   -4.4390   -1.6300 c3        1 MOL      0.153438
    157 C52         4.1180   -4.6880   -0.2030 c3        1 MOL      0.171495
    158 C53         2.5940   -4.7540   -0.3340 c         1 MOL      0.534718
    159 O21         2.2120   -5.9470   -0.4370 o         1 MOL     -0.661140
    160 O22         1.8820   -3.7380   -0.5490 o         1 MOL     -0.661140
    161 H72         7.1990   -4.1950    0.2050 hn        1 MOL      0.311713
    162 H73         6.4640   -5.4560   -1.5770 h1        1 MOL      0.053050
    163 H74         4.2500   -5.2220   -2.2620 hc        1 MOL     -0.033839
    164 H75         4.2760   -3.4950   -1.9960 hc        1 MOL     -0.033839
    165 H76         4.4100   -3.8200    0.3890 hc        1 MOL     -0.081712
    166 H77         4.5390   -5.5760    0.2780 hc        1 MOL     -0.081712
    167 N15         7.9790   -3.5240   -3.2700 n         1 MOL     -0.341489
    168 C54         8.4780   -2.8020   -4.4500 c3        1 MOL     -0.040315
    169 H78         9.5520   -2.9640   -4.5470 h1        1 MOL      0.068448
    170 H79         7.9740   -3.1710   -5.3430 h1        1 MOL      0.068448
    171 H80         8.2810   -1.7360   -4.3350 h1        1 MOL      0.068448
    172 H81         8.5510   -3.5210   -2.4340 hn        1 MOL      0.242466
    173 Ca1         0.9550   -1.5030   -1.1610 Ca        1 MOL      1.694319
    174 O23         0.8590   -3.2830   -3.2750 oh        1 MOL     -0.815103
    175 H82         0.5540   -3.5290   -4.1460 ho        1 MOL      0.401962
    176 H83         1.3740   -4.0350   -2.9810 ho        1 MOL      0.401962
    177 O24         3.6570   -0.8880   -1.4340 oh        1 MOL     -0.815103
    178 H84         4.4910   -1.3540   -1.5600 ho        1 MOL      0.401962
    179 H85         3.8210   -0.3160   -0.6790 ho        1 MOL      0.401962
    180 O25         0.5350    0.1820   -3.2160 oh        1 MOL     -0.815103
    181 H86         0.7000    0.7760   -3.9530 ho        1 MOL      0.401962
    182 H87        -0.2170    0.5630   -2.7660 ho        1 MOL      0.401962
    183 O26        -0.8980   -3.5520   -0.8420 oh        1 MOL     -0.815103
    184 H88        -1.2070   -4.0990   -1.5590 ho        1 MOL      0.401962
    185 H89        -0.2730   -4.1130   -0.3630 ho        1 MOL      0.401962
@<TRIPOS>BOND
     1    1    2 1   
     2    1    4 1   
     3    1    5 1   
     4    1    6 1   
     5    2    3 2   
     6    2    7 1   
     7    7    8 1   
     8    7   15 1   
     9    8    9 1   
    10    8   11 1   
    11    8   16 1   
    12    9   10 2   
    13    9   19 1   
    14   11   12 1   
    15   11   17 1   
    16   11   18 1   
    17   12   13 1   
    18   12   14 1   
    19   19   20 1   
    20   19   28 1   
    21   20   21 1   
    22   20   23 1   
    23   20   29 1   
    24   21   22 2   
    25   21   41 1   
    26   23   24 1   
    27   23   30 1   
    28   23   31 1   
    29   24   25 1   
    30   24   32 1   
    31   24   33 1   
    32   25   26 1   
    33   25   34 1   
    34   25   35 1   
    35   26   27 1   
    36   26   36 1   
    37   26   37 1   
    38   27   38 1   
    39   27   39 1   
    40   27   40 1   
    41   41   42 1   
    42   41   49 1   
    43   42   43 1   
    44   42   45 1   
    45   42   50 1   
    46   43   44 2   
    47   43   53 1   
    48   45   46 1   
    49   45   51 1   
    50   45   52 1   
    51   46   47 1   
    52   46   48 1   
    53   53   54 1   
    54   53   57 1   
    55   54   55 1   
    56   54   58 1   
    57   54   59 1   
    58   55   56 2   
    59   55   60 1   
    60   60   61 1   
    61   60   68 1   
    62   61   62 1   
    63   61   64 1   
    64   61   69 1   
    65   62   63 2   
    66   62   74 1   
    67   64   65 1   
    68   64   70 1   
    69   64   71 1   
    70   65   66 1   
    71   65   67 2   
    72   66   72 1   
    73   66   73 1   
    74   74   75 1   
    75   74   78 1   
    76   75   76 1   
    77   75   79 1   
    78   75   80 1   
    79   76   77 2   
    80   76   81 1   
    81   81   82 1   
    82   81   93 1   
    83   82   83 1   
    84   82   85 1   
    85   82   94 1   
    86   83   84 2   
    87   83  102 1   
    88   85   86 1   
    89   85   95 1   
    90   85   96 1   
    91   86   87 ar  
    92   86   88 ar  
    93   87   89 ar  
    94   87   97 1   
    95   88   90 ar  
    96   88   98 1   
    97   89   91 ar  
    98   89   99 1   
    99   90   91 ar  
   100   90  100 1   
   101   91   92 1   
   102   92  101 1   
   103  102  103 1   
   104  102  110 1   
   105  103  104 1   
   106  103  106 1   
   107  103  111 1   
   108  104  105 2   
   109  104  121 1   
   110  106  107 1   
   111  106  108 1   
   112  106  112 1   
   113  107  109 1   
   114  107  113 1   
   115  107  114 1   
   116  108  115 1   
   117  108  116 1   
   118  108  117 1   
   119  109  118 1   
   120  109  119 1   
   121  109  120 1   
   122  121  122 1   
   123  121  127 1   
   124  122  123 1   
   125  122  125 1   
   126  122  128 1   
   127  123  124 2   
   128  123  132 1   
   129  125  126 1   
   130  125  129 1   
   131  125  130 1   
   132  126  131 1   
   133  132  133 1   
   134  132  137 1   
   135  133  134 1   
   136  133  136 1   
   137  133  138 1   
   138  134  135 2   
   139  134  142 1   
   140  136  139 1   
   141  136  140 1   
   142  136  141 1   
   143  142  143 1   
   144  142  147 1   
   145  143  144 1   
   146  143  146 1   
   147  143  148 1   
   148  144  145 2   
   149  144  152 1   
   150  146  149 1   
   151  146  150 1   
   152  146  151 1   
   153  152  153 1   
   154  152  161 1   
   155  153  154 1   
   156  153  156 1   
   157  153  162 1   
   158  154  155 2   
   159  154  167 1   
   160  156  157 1   
   161  156  163 1   
   162  156  164 1   
   163  157  158 1   
   164  157  165 1   
   165  157  166 1   
   166  158  159 1   
   167  158  160 1   
   168  167  168 1   
   169  167  172 1   
   170  168  169 1   
   171  168  170 1   
   172  168  171 1   
   173  174  175 1   
   174  174  176 1   
   175  177  178 1   
   176  177  179 1   
   177  180  181 1   
   178  180  182 1   
   179  183  184 1   
   180  183  185 1   
@<TRIPOS>SUBSTRUCTURE
     1 MOL         1 TEMP              0 ****  ****    0 ROOT
