@<TRIPOS>MOLECULE
MOL
  191   184     1     0     0
SMALL
resp


@<TRIPOS>ATOM
      1 C1         -6.0320   -1.7380    4.2790 c3        1 MOL     -0.318928
      2 C2         -5.8910   -1.6750    2.7980 c         1 MOL      0.649783
      3 O1         -5.4380   -0.6090    2.2130 o         1 MOL     -0.636654
      4 H1         -6.8550   -1.0950    4.5930 hc        1 MOL      0.085653
      5 H2         -6.2370   -2.7650    4.5820 hc        1 MOL      0.085653
      6 H3         -5.1090   -1.3980    4.7480 hc        1 MOL      0.085653
      7 N1         -6.5660   -2.6360    2.0960 n         1 MOL     -0.518661
      8 C3         -6.9010   -2.7320    0.6300 c3        1 MOL      0.032133
      9 C4         -7.6280   -1.5610   -0.0930 c         1 MOL      0.498558
     10 O2         -7.8610   -1.6450   -1.3290 o         1 MOL     -0.490047
     11 C5         -5.7790   -3.4100   -0.0920 c3        1 MOL     -0.155221
     12 C6         -6.3290   -4.7100   -0.7000 c         1 MOL      0.724668
     13 O3         -6.5090   -4.7680   -1.9590 o         1 MOL     -0.710654
     14 O4         -6.5260   -5.6450    0.0490 o         1 MOL     -0.710654
     15 H4         -6.8860   -3.3840    2.6870 hn        1 MOL      0.305861
     16 H5         -7.7330   -3.4260    0.6800 h1        1 MOL      0.097380
     17 H6         -4.8910   -3.6440    0.4910 hc        1 MOL      0.038815
     18 H7         -5.3500   -2.8160   -0.9020 hc        1 MOL      0.038815
     19 N2         -7.8640   -0.3760    0.5540 n         1 MOL     -0.422176
     20 C7         -8.3570    0.8830   -0.0460 c3        1 MOL      0.017584
     21 C8         -7.1950    1.7530   -0.4420 c         1 MOL      0.562726
     22 O5         -7.3460    2.9190   -0.7340 o         1 MOL     -0.606402
     23 C9         -9.4600    1.5320    0.7840 c3        1 MOL      0.024713
     24 C10        -8.9410    1.6910    2.2160 c3        1 MOL      0.056701
     25 C11        -9.8610    2.3860    3.2100 c3        1 MOL     -0.389628
     26 C12       -10.3420    3.7690    2.7460 c3        1 MOL      0.105053
     27 N3        -10.5260    4.6740    3.8700 n4        1 MOL     -0.319880
     28 H8         -7.6530   -0.3510    1.5430 hn        1 MOL      0.178096
     29 H9         -8.9280    0.6170   -0.9350 h1        1 MOL      0.106338
     30 H10       -10.3790    0.9630    0.8460 hc        1 MOL      0.010305
     31 H11        -9.6720    2.4960    0.3130 hc        1 MOL      0.010305
     32 H12        -8.0440    2.2980    2.0850 hc        1 MOL      0.047971
     33 H13        -8.7010    0.7130    2.6310 hc        1 MOL      0.047971
     34 H14        -9.4590    2.2440    4.2170 hc        1 MOL      0.134533
     35 H15       -10.7220    1.7380    3.4120 hc        1 MOL      0.134533
     36 H16       -11.3150    3.7020    2.2610 hx        1 MOL      0.088677
     37 H17        -9.6770    4.2500    2.0280 hx        1 MOL      0.088677
     38 H18        -9.5930    4.7290    4.2510 hn        1 MOL      0.317306
     39 H19       -10.7540    5.6290    3.6490 hn        1 MOL      0.317306
     40 H20       -11.1920    4.3290    4.5590 hn        1 MOL      0.317306
     41 N4         -5.9540    1.2900   -0.4750 n         1 MOL     -0.313265
     42 C13        -4.6370    1.9900   -0.7700 c3        1 MOL     -0.134347
     43 C14        -4.3560    1.7150   -2.2430 c         1 MOL      0.595113
     44 O6         -4.5310    0.6070   -2.6680 o         1 MOL     -0.454814
     45 C15        -3.5450    1.4470    0.1470 c3        1 MOL      0.091789
     46 C16        -2.1840    2.1350    0.0690 c         1 MOL      0.506879
     47 O7         -1.6660    2.6150    1.0720 o         1 MOL     -0.667373
     48 O8         -1.5920    2.3790   -1.0490 o         1 MOL     -0.667373
     49 H21        -5.9270    0.3150   -0.1970 hn        1 MOL      0.251943
     50 H22        -4.7730    3.0320   -0.4730 h1        1 MOL      0.077251
     51 H23        -3.5300    0.3700   -0.0140 hc        1 MOL      0.019045
     52 H24        -3.9060    1.5240    1.1780 hc        1 MOL      0.019045
     53 N5         -3.9260    2.7970   -2.9310 n         1 MOL     -0.454047
     54 C17        -3.5270    2.7950   -4.3820 c3        1 MOL     -0.151365
     55 C18        -2.5390    1.6730   -4.7930 c         1 MOL      0.480991
     56 O9         -2.4660    1.2030   -5.9410 o         1 MOL     -0.529852
     57 H25        -3.7370    3.6670   -2.4500 hn        1 MOL      0.303884
     58 H26        -3.1310    3.7490   -4.7370 h1        1 MOL      0.110830
     59 H27        -4.4430    2.5490   -4.9290 h1        1 MOL      0.110830
     60 N6         -1.7090    1.3180   -3.8410 n         1 MOL     -0.409083
     61 C19        -0.5990    0.3220   -3.8910 c3        1 MOL     -0.066937
     62 C20        -1.1020   -1.0910   -3.5260 c         1 MOL      0.541726
     63 O10        -0.2700   -1.9820   -3.3150 o         1 MOL     -0.531390
     64 C21         0.6260    0.7900   -3.0090 c3        1 MOL     -0.313971
     65 C22         1.2590    2.0580   -3.4470 c         1 MOL      0.667407
     66 N7          1.6500    2.1120   -4.7120 n         1 MOL     -0.700221
     67 O11         1.4280    3.0150   -2.6960 o         1 MOL     -0.642481
     68 H28        -1.7770    1.8900   -3.0090 hn        1 MOL      0.288102
     69 H29        -0.4330    0.1350   -4.9480 h1        1 MOL      0.127493
     70 H30         1.3280   -0.0450   -2.9530 hc        1 MOL      0.151228
     71 H31         0.2130    0.9180   -2.0120 hc        1 MOL      0.151228
     72 H32         1.6360    1.2920   -5.3010 hn        1 MOL      0.362599
     73 H33         1.8950    3.0420   -5.0330 hn        1 MOL      0.362599
     74 N8         -2.4010   -1.3030   -3.4190 n         1 MOL     -0.373593
     75 C23        -3.0410   -2.5650   -3.0080 c3        1 MOL     -0.057964
     76 C24        -2.6430   -3.1520   -1.6500 c         1 MOL      0.364254
     77 O12        -3.0190   -4.2570   -1.2890 o         1 MOL     -0.444572
     78 H34        -2.9590   -0.4880   -3.6380 hn        1 MOL      0.311365
     79 H35        -2.8920   -3.3920   -3.7170 h1        1 MOL      0.116495
     80 H36        -4.1150   -2.3800   -3.0140 h1        1 MOL      0.116495
     81 N9         -1.9910   -2.3050   -0.8780 n         1 MOL     -0.230771
     82 C25        -1.4090   -2.6040    0.4200 c3        1 MOL      0.048748
     83 C26         0.0200   -1.8960    0.5390 c         1 MOL      0.568169
     84 O13         0.1350   -0.7060    0.3620 o         1 MOL     -0.489982
     85 C27        -2.4070   -2.3620    1.6190 c3        1 MOL     -0.064958
     86 C28        -1.7760   -2.2820    3.0110 ca        1 MOL     -0.033239
     87 C29        -1.2270   -3.4040    3.6500 ca        1 MOL     -0.068989
     88 C30        -1.5320   -1.0010    3.6060 ca        1 MOL     -0.068989
     89 C31        -0.4750   -3.3110    4.8710 ca        1 MOL     -0.342245
     90 C32        -0.9000   -0.8600    4.8240 ca        1 MOL     -0.342245
     91 C33        -0.3460   -2.0440    5.4480 ca        1 MOL      0.398089
     92 O14         0.2820   -1.9500    6.6650 oh        1 MOL     -0.527278
     93 H37        -1.8140   -1.3670   -1.2170 hn        1 MOL      0.169067
     94 H38        -1.1280   -3.6630    0.4550 h1        1 MOL      0.047421
     95 H39        -3.1650   -3.1560    1.5960 hc        1 MOL      0.079613
     96 H40        -2.9470   -1.4580    1.3630 hc        1 MOL      0.079613
     97 H41        -1.4880   -4.3690    3.2420 ha        1 MOL      0.113093
     98 H42        -1.8680   -0.1560    3.0290 ha        1 MOL      0.113093
     99 H43        -0.1000   -4.1880    5.3700 ha        1 MOL      0.167242
    100 H44        -0.7730    0.1100    5.2680 ha        1 MOL      0.167242
    101 H45         0.4370   -1.0590    6.9710 ho        1 MOL      0.384181
    102 N10         0.9980   -2.7390    0.8280 n         1 MOL     -0.665812
    103 C34         2.3540   -2.2240    1.0650 c3        1 MOL     -0.037789
    104 C35         3.0380   -2.0190   -0.2510 c         1 MOL      0.305035
    105 O15         3.8650   -1.0840   -0.4920 o         1 MOL     -0.495875
    106 C36         3.1440   -3.0990    2.0240 c3        1 MOL      0.083454
    107 C37         2.4050   -3.2530    3.3950 c3        1 MOL      0.030723
    108 C38         4.5710   -2.6590    2.2100 c3        1 MOL     -0.197127
    109 C39         3.1380   -3.9660    4.5470 c3        1 MOL     -0.440068
    110 H46         0.8230   -3.7350    0.9140 hn        1 MOL      0.345260
    111 H47         2.3000   -1.2660    1.5760 h1        1 MOL      0.109998
    112 H48         3.2470   -4.0710    1.5420 hc        1 MOL     -0.001069
    113 H49         1.5060   -3.8580    3.2870 hc        1 MOL      0.069466
    114 H50         2.1830   -2.2770    3.8270 hc        1 MOL      0.069466
    115 H51         5.0940   -2.6050    1.2550 hc        1 MOL      0.059698
    116 H52         4.6060   -1.5850    2.3500 hc        1 MOL      0.059698
    117 H53         5.1190   -3.3000    2.8960 hc        1 MOL      0.059698
    118 H54         3.9810   -3.3950    4.9390 hc        1 MOL      0.120667
    119 H55         2.3870   -4.2510    5.2790 hc        1 MOL      0.120667
    120 H56         3.5210   -4.8080    3.9760 hc        1 MOL      0.120667
    121 N11         2.7110   -2.9010   -1.1830 n         1 MOL     -0.060939
    122 C40         3.0640   -2.9240   -2.6350 c3        1 MOL     -0.050975
    123 C41         4.6080   -2.9550   -2.9570 c         1 MOL      0.286180
    124 O16         5.0220   -2.2570   -3.9200 o         1 MOL     -0.458115
    125 C42         2.3820   -4.1520   -3.3040 c3        1 MOL      0.185778
    126 O17         1.1560   -4.3290   -2.7370 oh        1 MOL     -0.572484
    127 H57         1.9980   -3.5810   -0.9680 hn        1 MOL      0.186597
    128 H58         2.7280   -1.9910   -3.0950 h1        1 MOL      0.059774
    129 H59         3.0030   -5.0220   -3.0920 h1        1 MOL      0.038726
    130 H60         2.3220   -3.9130   -4.3720 h1        1 MOL      0.038726
    131 H61         0.5510   -3.5900   -2.8630 ho        1 MOL      0.392978
    132 N12         5.3740   -3.6340   -2.0830 n         1 MOL     -0.252879
    133 C43         6.8420   -3.6690   -1.8930 c3        1 MOL      0.375948
    134 C44         7.5840   -2.3550   -1.8110 c         1 MOL      0.363914
    135 O18         8.6190   -2.1490   -2.4780 o         1 MOL     -0.523069
    136 C45         7.3950   -4.7090   -2.8520 c3        1 MOL     -0.387660
    137 H62         4.8580   -4.1970   -1.4290 hn        1 MOL      0.184673
    138 H63         7.0290   -4.0820   -0.8970 h1        1 MOL     -0.010104
    139 H64         8.3750   -5.0360   -2.4870 hc        1 MOL      0.095540
    140 H65         6.7180   -5.5450   -2.9730 hc        1 MOL      0.095540
    141 H66         7.5170   -4.1110   -3.7540 hc        1 MOL      0.095540
    142 N13         7.0220   -1.3940   -1.0980 n         1 MOL     -0.256533
    143 C46         7.4470    0.0580   -1.1270 c3        1 MOL      0.288700
    144 C47         7.5750    0.4730    0.3830 c         1 MOL      0.289766
    145 O19         6.8480   -0.1280    1.2330 o         1 MOL     -0.401443
    146 C48         6.4330    0.9780   -1.8300 c3        1 MOL     -0.088867
    147 H67         6.2360   -1.5450   -0.4920 hn        1 MOL      0.069185
    148 H68         8.3980    0.0910   -1.6530 h1        1 MOL      0.002255
    149 H69         5.5150    0.9420   -1.2380 hc        1 MOL      0.029574
    150 H70         6.7070    2.0340   -1.8540 hc        1 MOL      0.029574
    151 H71         6.2600    0.6140   -2.8450 hc        1 MOL      0.029574
    152 N14         8.3760    1.4400    0.6940 n         1 MOL     -0.363265
    153 C49         8.6520    1.9700    2.0480 c3        1 MOL     -0.167185
    154 C50         8.8480    0.9900    3.1840 c         1 MOL      0.486310
    155 O20         8.4070    1.2840    4.3220 o         1 MOL     -0.485929
    156 C51         7.5710    3.0210    2.3930 c3        1 MOL      0.328044
    157 C52         7.3820    4.1530    1.4010 c3        1 MOL     -0.290058
    158 C53         8.6530    5.0790    1.3620 c         1 MOL      0.725200
    159 O21         9.4880    4.8430    0.5070 o         1 MOL     -0.704412
    160 O22         8.7970    5.9360    2.2550 o         1 MOL     -0.704412
    161 H72         8.9430    1.8480   -0.0450 hn        1 MOL      0.279780
    162 H73         9.5840    2.5200    1.8730 h1        1 MOL      0.141258
    163 H74         7.7800    3.4810    3.3600 hc        1 MOL     -0.051684
    164 H75         6.6360    2.4680    2.5230 hc        1 MOL     -0.051684
    165 H76         6.4860    4.7270    1.6140 hc        1 MOL     -0.011692
    166 H77         7.1930    3.6800    0.4330 hc        1 MOL     -0.011692
    167 N15         9.4180   -0.2390    2.8660 n         1 MOL     -0.402516
    168 C54         9.3680   -1.3310    3.8330 c3        1 MOL     -0.032728
    169 H78         8.5690   -1.1460    4.5500 h1        1 MOL      0.060100
    170 H79         9.1780   -2.2690    3.3120 h1        1 MOL      0.060100
    171 H80        10.3200   -1.3950    4.3600 h1        1 MOL      0.060100
    172 H81         9.4530   -0.3860    1.8750 hn        1 MOL      0.261923
    173 Ca1         0.3110    4.0110   -0.4010 Ca        1 MOL      1.723234
    174 O23         2.9750    4.4070    0.1540 oh        1 MOL     -0.816834
    175 H82         3.4960    3.8260   -0.3960 ho        1 MOL      0.412250
    176 H83         3.5670    4.6490    0.8670 ho        1 MOL      0.412250
    177 O24         1.1810    6.2150   -1.3210 oh        1 MOL     -0.816834
    178 H84         1.0220    6.7410   -2.1050 ho        1 MOL      0.412250
    179 H85         1.5280    6.8320   -0.6770 ho        1 MOL      0.412250
    180 O25        -1.1610    4.5900   -2.6980 oh        1 MOL     -0.816834
    181 H86        -0.7630    4.2830   -3.5130 ho        1 MOL      0.412250
    182 H87        -1.6700    5.3630   -2.9530 ho        1 MOL      0.412250
    183 O26        -1.6540    5.7650    0.4140 oh        1 MOL     -0.816834
    184 H88        -1.9900    6.6540    0.3560 ho        1 MOL      0.412250
    185 H89        -1.7880    5.5190    1.3300 ho        1 MOL      0.412250
    186 O27         0.7700    4.9780    1.9810 oh        1 MOL     -0.816834
    187 H90         1.1120    4.6890    2.8290 ho        1 MOL      0.412250
    188 H91         0.8900    5.9250    1.9730 ho        1 MOL      0.412250
    189 O28         1.5020    1.6740    0.3220 oh        1 MOL     -0.816834
    190 H92         2.2760    1.6340    0.8800 ho        1 MOL      0.412250
    191 H93         1.3490    0.7680    0.0570 ho        1 MOL      0.412250
@<TRIPOS>BOND
     1    1    2 1   
     2    1    4 1   
     3    1    5 1   
     4    1    6 1   
     5    2    3 2   
     6    2    7 1   
     7    7    8 1   
     8    7   15 1   
     9    8    9 1   
    10    8   11 1   
    11    8   16 1   
    12    9   10 2   
    13    9   19 1   
    14   11   12 1   
    15   11   17 1   
    16   11   18 1   
    17   12   13 1   
    18   12   14 1   
    19   19   20 1   
    20   19   28 1   
    21   20   21 1   
    22   20   23 1   
    23   20   29 1   
    24   21   22 2   
    25   21   41 1   
    26   23   24 1   
    27   23   30 1   
    28   23   31 1   
    29   24   25 1   
    30   24   32 1   
    31   24   33 1   
    32   25   26 1   
    33   25   34 1   
    34   25   35 1   
    35   26   27 1   
    36   26   36 1   
    37   26   37 1   
    38   27   38 1   
    39   27   39 1   
    40   27   40 1   
    41   41   42 1   
    42   41   49 1   
    43   42   43 1   
    44   42   45 1   
    45   42   50 1   
    46   43   44 2   
    47   43   53 1   
    48   45   46 1   
    49   45   51 1   
    50   45   52 1   
    51   46   47 1   
    52   46   48 1   
    53   53   54 1   
    54   53   57 1   
    55   54   55 1   
    56   54   58 1   
    57   54   59 1   
    58   55   56 2   
    59   55   60 1   
    60   60   61 1   
    61   60   68 1   
    62   61   62 1   
    63   61   64 1   
    64   61   69 1   
    65   62   63 2   
    66   62   74 1   
    67   64   65 1   
    68   64   70 1   
    69   64   71 1   
    70   65   66 1   
    71   65   67 2   
    72   66   72 1   
    73   66   73 1   
    74   74   75 1   
    75   74   78 1   
    76   75   76 1   
    77   75   79 1   
    78   75   80 1   
    79   76   77 2   
    80   76   81 1   
    81   81   82 1   
    82   81   93 1   
    83   82   83 1   
    84   82   85 1   
    85   82   94 1   
    86   83   84 2   
    87   83  102 1   
    88   85   86 1   
    89   85   95 1   
    90   85   96 1   
    91   86   87 ar  
    92   86   88 ar  
    93   87   89 ar  
    94   87   97 1   
    95   88   90 ar  
    96   88   98 1   
    97   89   91 ar  
    98   89   99 1   
    99   90   91 ar  
   100   90  100 1   
   101   91   92 1   
   102   92  101 1   
   103  102  103 1   
   104  102  110 1   
   105  103  104 1   
   106  103  106 1   
   107  103  111 1   
   108  104  105 2   
   109  104  121 1   
   110  106  107 1   
   111  106  108 1   
   112  106  112 1   
   113  107  109 1   
   114  107  113 1   
   115  107  114 1   
   116  108  115 1   
   117  108  116 1   
   118  108  117 1   
   119  109  118 1   
   120  109  119 1   
   121  109  120 1   
   122  121  122 1   
   123  121  127 1   
   124  122  123 1   
   125  122  125 1   
   126  122  128 1   
   127  123  124 2   
   128  123  132 1   
   129  125  126 1   
   130  125  129 1   
   131  125  130 1   
   132  126  131 1   
   133  132  133 1   
   134  132  137 1   
   135  133  134 1   
   136  133  136 1   
   137  133  138 1   
   138  134  135 2   
   139  134  142 1   
   140  136  139 1   
   141  136  140 1   
   142  136  141 1   
   143  142  143 1   
   144  142  147 1   
   145  143  144 1   
   146  143  146 1   
   147  143  148 1   
   148  144  145 2   
   149  144  152 1   
   150  146  149 1   
   151  146  150 1   
   152  146  151 1   
   153  152  153 1   
   154  152  161 1   
   155  153  154 1   
   156  153  156 1   
   157  153  162 1   
   158  154  155 2   
   159  154  167 1   
   160  156  157 1   
   161  156  163 1   
   162  156  164 1   
   163  157  158 1   
   164  157  165 1   
   165  157  166 1   
   166  158  159 1   
   167  158  160 1   
   168  167  168 1   
   169  167  172 1   
   170  168  169 1   
   171  168  170 1   
   172  168  171 1   
   173  174  175 1   
   174  174  176 1   
   175  177  178 1   
   176  177  179 1   
   177  180  181 1   
   178  180  182 1   
   179  183  184 1   
   180  183  185 1   
   181  186  187 1   
   182  186  188 1   
   183  189  190 1   
   184  189  191 1   
@<TRIPOS>SUBSTRUCTURE
     1 MOL         1 TEMP              0 ****  ****    0 ROOT
