@<TRIPOS>MOLECULE
MOL
  189   185     1     0     0
SMALL
resp


@<TRIPOS>ATOM
      1 C1         -4.0340    4.8560    2.5110 c3        1 MOL     -0.441246
      2 C2         -4.8450    3.9100    1.5990 c         1 MOL      0.851115
      3 O1         -4.4010    3.5480    0.5290 o         1 MOL     -0.722203
      4 H1         -3.5210    4.2710    3.2750 hc        1 MOL      0.108718
      5 H2         -3.3000    5.3960    1.9140 hc        1 MOL      0.108718
      6 H3         -4.7090    5.5660    2.9900 hc        1 MOL      0.108718
      7 N1         -6.1140    3.5500    1.9610 n         1 MOL     -0.646977
      8 C3         -6.9800    2.4550    1.4260 c3        1 MOL      0.192679
      9 C4         -6.2170    1.0970    1.3240 c         1 MOL      0.365671
     10 O2         -5.8840    0.5940    0.2240 o         1 MOL     -0.424639
     11 C5         -7.7120    2.9640    0.1360 c3        1 MOL     -0.169973
     12 C6         -6.9340    3.8220   -0.9300 c         1 MOL      0.809471
     13 O3         -6.2330    3.2360   -1.7870 o         1 MOL     -0.754491
     14 O4         -7.1840    5.0250   -0.8970 o         1 MOL     -0.754491
     15 H4         -6.4670    4.1400    2.7040 hn        1 MOL      0.303443
     16 H5         -7.7260    2.4000    2.2200 h1        1 MOL      0.037247
     17 H6         -8.4920    3.6700    0.4560 hc        1 MOL      0.032684
     18 H7         -8.1810    2.1380   -0.4000 hc        1 MOL      0.032684
     19 N2         -5.8760    0.5420    2.4640 n         1 MOL     -0.567050
     20 C7         -5.1210   -0.6940    2.8210 c3        1 MOL      0.358945
     21 C8         -5.7870   -1.9860    2.2550 c         1 MOL      0.292283
     22 O5         -5.8970   -2.9450    3.0580 o         1 MOL     -0.546414
     23 C9         -3.6440   -0.5240    2.4420 c3        1 MOL      0.035106
     24 C10        -2.8430   -1.7210    3.0130 c3        1 MOL      0.026312
     25 C11        -3.0210    0.8510    2.8180 c3        1 MOL     -0.569678
     26 C12        -2.8070   -1.7450    4.5510 c3        1 MOL     -0.307454
     27 H8         -6.1490    1.0750    3.2790 hn        1 MOL      0.279850
     28 H9         -5.2730   -0.8180    3.8970 h1        1 MOL      0.017342
     29 H10        -3.5860   -0.6600    1.3570 hc        1 MOL     -0.084909
     30 H11        -1.8420   -1.6030    2.6010 hc        1 MOL      0.079861
     31 H12        -3.2450   -2.6690    2.6640 hc        1 MOL      0.079861
     32 H13        -1.9520    0.7330    2.7130 hc        1 MOL      0.149573
     33 H14        -3.2730    1.5910    2.0520 hc        1 MOL      0.149573
     34 H15        -3.3120    1.1310    3.8260 hc        1 MOL      0.149573
     35 H16        -3.7780   -2.1160    4.8920 hc        1 MOL      0.060292
     36 H17        -2.1190   -2.5070    4.9040 hc        1 MOL      0.060292
     37 H18        -2.4200   -0.8570    5.0430 hc        1 MOL      0.060292
     38 N3         -6.2930   -2.0880    1.0150 n         1 MOL     -0.174270
     39 C13        -6.9180   -3.3180    0.5480 c3        1 MOL      0.035862
     40 C14        -6.0880   -4.6400    0.7130 c         1 MOL      0.619731
     41 O6         -6.7270   -5.6220    1.0630 o         1 MOL     -0.607202
     42 C15        -7.2810   -3.1600   -0.9270 c3        1 MOL     -0.332474
     43 C16        -8.0820   -1.9530   -1.1870 c         1 MOL      0.780724
     44 O7         -8.8460   -1.5320   -0.2990 o         1 MOL     -0.734875
     45 O8         -7.9320   -1.2960   -2.2670 o         1 MOL     -0.734875
     46 H19        -6.2140   -1.2750    0.4240 hn        1 MOL      0.320583
     47 H20        -7.8280   -3.5020    1.1290 h1        1 MOL      0.059199
     48 H21        -7.8890   -4.0300   -1.1960 hc        1 MOL      0.096576
     49 H22        -6.4410   -3.2100   -1.6220 hc        1 MOL      0.096576
     50 N4         -4.7820   -4.7630    0.4140 n         1 MOL     -0.516947
     51 C17        -3.9460   -3.7550   -0.2220 c3        1 MOL      0.072390
     52 C18        -2.6560   -4.4210   -0.8960 c         1 MOL      0.734170
     53 O9         -2.2900   -5.5150   -0.6730 o         1 MOL     -0.602805
     54 H23        -4.4360   -5.7110    0.3980 hn        1 MOL      0.282578
     55 H24        -3.5920   -3.0410    0.5240 h1        1 MOL      0.010866
     56 H25        -4.6030   -3.2890   -0.9640 h1        1 MOL      0.010866
     57 N5         -1.9700   -3.7760   -1.8130 n         1 MOL     -0.513479
     58 C19        -2.3090   -2.5150   -2.3770 c3        1 MOL      0.052398
     59 C20        -2.4590   -1.3270   -1.4210 c         1 MOL      0.709768
     60 O10        -3.4670   -0.6420   -1.3800 o         1 MOL     -0.774422
     61 C21        -3.4390   -2.5480   -3.4740 c3        1 MOL     -0.506156
     62 C22        -3.4580   -3.8150   -4.2020 c         1 MOL      0.819661
     63 O11        -4.3640   -4.6780   -3.9260 o         1 MOL     -0.739835
     64 O12        -2.6370   -4.0500   -5.1190 o         1 MOL     -0.739835
     65 H26        -1.1770   -4.2590   -2.2040 hn        1 MOL      0.305478
     66 H27        -1.3780   -2.2370   -2.8820 h1        1 MOL      0.105776
     67 H28        -3.3530   -1.6890   -4.1320 hc        1 MOL      0.130297
     68 H29        -4.3950   -2.5210   -2.9370 hc        1 MOL      0.130297
     69 N6         -1.4200   -0.9890   -0.5980 n         1 MOL     -0.329716
     70 C23         0.0190   -1.3740   -0.7100 c3        1 MOL     -0.139356
     71 C24         0.3550   -2.6450    0.0810 c         1 MOL      0.906383
     72 O13        -0.3770   -2.8860    1.0560 o         1 MOL     -0.682413
     73 H30        -1.6680   -0.1520   -0.0890 hn        1 MOL      0.246230
     74 H31         0.6390   -0.5500   -0.3410 h1        1 MOL      0.022437
     75 H32         0.2210   -1.6370   -1.7520 h1        1 MOL      0.022437
     76 N7          1.4890   -3.3160   -0.1480 n         1 MOL     -0.633917
     77 C25         1.9380   -4.4170    0.7250 c3        1 MOL     -0.119601
     78 C26         2.5920   -3.9580    1.9870 c         1 MOL      0.541324
     79 O14         2.7090   -4.7540    2.9410 o         1 MOL     -0.527568
     80 C27         2.7480   -5.4450   -0.1170 c3        1 MOL      0.063883
     81 C28         4.2580   -5.0930   -0.3590 c3        1 MOL     -0.295418
     82 C29         4.4170   -4.0960   -1.5220 c         1 MOL      0.715998
     83 N8          5.6050   -4.0610   -2.0720 n         1 MOL     -0.801850
     84 O15         3.6620   -3.2260   -1.8470 o         1 MOL     -0.521398
     85 H33         2.0710   -3.0140   -0.9100 hn        1 MOL      0.304444
     86 H34         1.0760   -4.9960    1.0430 h1        1 MOL      0.157275
     87 H35         2.2460   -5.6460   -1.0650 hc        1 MOL      0.037299
     88 H36         2.6920   -6.3920    0.4260 hc        1 MOL      0.037299
     89 H37         4.8440   -5.9890   -0.5600 hc        1 MOL      0.089863
     90 H38         4.5920   -4.6280    0.5730 hc        1 MOL      0.089863
     91 H39         6.3560   -4.6270   -1.7210 hn        1 MOL      0.360551
     92 H40         5.7190   -3.5700   -2.9510 hn        1 MOL      0.360551
     93 N9          3.0610   -2.6490    2.1730 n         1 MOL     -0.214300
     94 C30         3.6050   -2.1430    3.4570 c3        1 MOL     -0.358523
     95 C31         4.9500   -1.4120    3.2890 c         1 MOL      0.888282
     96 O16         5.5430   -1.3010    4.3100 o         1 MOL     -0.599226
     97 C32         2.5260   -1.2490    4.1360 c3        1 MOL      0.296889
     98 C33         1.2550   -1.9120    4.7180 c3        1 MOL     -0.340947
     99 C34         2.0470   -0.0820    3.2020 c3        1 MOL     -0.340947
    100 H41         3.0590   -2.0290    1.3780 hn        1 MOL      0.208758
    101 H42         3.8650   -3.0000    4.0830 h1        1 MOL      0.155505
    102 H43         3.0200   -0.7180    4.9520 hc        1 MOL     -0.026731
    103 H44         0.5770   -1.2430    5.2460 hc        1 MOL      0.088466
    104 H45         0.6510   -2.1630    3.8520 hc        1 MOL      0.088466
    105 H46         1.5220   -2.8170    5.2680 hc        1 MOL      0.088466
    106 H47         1.8120   -0.4560    2.2020 hc        1 MOL      0.088466
    107 H48         1.2570    0.4830    3.6990 hc        1 MOL      0.088466
    108 H49         2.8900    0.6030    3.1720 hc        1 MOL      0.088466
    109 N10         5.3940   -1.1070    2.0830 n         1 MOL     -0.768424
    110 C35         6.7840   -0.7030    1.7750 c3        1 MOL      0.126109
    111 C36         6.9550    0.5320    0.9010 c         1 MOL      0.502220
    112 O17         8.0630    1.0150    0.8030 o         1 MOL     -0.541486
    113 C37         7.5610   -1.9090    1.2320 c3        1 MOL     -0.304664
    114 C38         7.7080   -3.1820    2.1000 c         1 MOL      0.599011
    115 N11         7.8250   -2.9840    3.3910 n         1 MOL     -0.684449
    116 O18         7.6350   -4.2670    1.6170 o         1 MOL     -0.554309
    117 H50         4.8550   -1.3640    1.2600 hn        1 MOL      0.344754
    118 H51         7.2770   -0.4030    2.7000 h1        1 MOL      0.065186
    119 H52         8.5880   -1.5970    1.0700 hc        1 MOL      0.121886
    120 H53         7.0730   -2.1200    0.2870 hc        1 MOL      0.121886
    121 H54         7.8890   -2.0660    3.8020 hn        1 MOL      0.338935
    122 H55         8.0980   -3.8090    3.9160 hn        1 MOL      0.338935
    123 N12         5.8720    0.9440    0.2330 n         1 MOL     -0.367567
    124 C39         5.9520    2.1600   -0.5430 c3        1 MOL      0.347235
    125 C40         4.7240    3.0320   -0.4260 c         1 MOL      0.174126
    126 O19         3.7720    2.6160    0.2250 o         1 MOL     -0.458102
    127 C41         6.1240    1.6930   -2.0160 c3        1 MOL     -0.011160
    128 C42         7.2340    0.7440   -2.3810 ca        1 MOL     -0.065111
    129 C43         8.4830    1.2340   -2.7800 ca        1 MOL     -0.106061
    130 C44         7.0170   -0.6540   -2.2400 ca        1 MOL     -0.106061
    131 C45         9.5370    0.3590   -3.0810 ca        1 MOL     -0.239969
    132 C46         8.1170   -1.5130   -2.4810 ca        1 MOL     -0.239969
    133 C47         9.3140   -1.0180   -2.9740 ca        1 MOL      0.341057
    134 O20        10.3770   -1.7940   -3.2290 oh        1 MOL     -0.532284
    135 H56         4.9440    0.5860    0.3640 hn        1 MOL      0.279076
    136 H57         6.7870    2.8110   -0.2760 h1        1 MOL     -0.012414
    137 H58         6.1500    2.5740   -2.6630 hc        1 MOL      0.030240
    138 H59         5.1530    1.2670   -2.2810 hc        1 MOL      0.030240
    139 H60         8.6640    2.2870   -2.9420 ha        1 MOL      0.096455
    140 H61         6.0970   -0.9640   -1.7550 ha        1 MOL      0.096455
    141 H62        10.5050    0.7350   -3.3720 ha        1 MOL      0.117104
    142 H63         8.0040   -2.5810   -2.3380 ha        1 MOL      0.117104
    143 H64        11.1170   -1.3530   -3.6660 ho        1 MOL      0.380009
    144 N13         4.6430    4.2430   -0.9900 n         1 MOL     -0.310743
    145 C48         3.5720    5.0710   -1.5690 c3        1 MOL     -0.097134
    146 C49         2.3610    5.4810   -0.7430 c         1 MOL      0.752497
    147 O21         1.8650    6.6130   -0.8630 o         1 MOL     -0.619115
    148 C50         3.1000    4.3760   -2.9060 c3        1 MOL     -0.150142
    149 C51         2.4460    2.9660   -2.7820 c3        1 MOL     -0.208490
    150 C52         1.6590    2.4610   -4.0020 c         1 MOL      0.692461
    151 O22         1.4800    1.2240   -4.1120 o         1 MOL     -0.702476
    152 O23         1.1120    3.2070   -4.7970 o         1 MOL     -0.702476
    153 H65         5.5740    4.5660   -1.2010 hn        1 MOL      0.258043
    154 H66         4.1080    6.0000   -1.7570 h1        1 MOL      0.060449
    155 H67         3.9300    4.2610   -3.6020 hc        1 MOL      0.062914
    156 H68         2.3390    5.0710   -3.2510 hc        1 MOL      0.062914
    157 H69         1.7910    3.1140   -1.9310 hc        1 MOL      0.065644
    158 H70         3.2100    2.2630   -2.4420 hc        1 MOL      0.065644
    159 N14         2.0250    4.7520    0.3140 n         1 MOL     -0.504522
    160 C53         0.9360    5.0340    1.2680 c3        1 MOL     -0.071487
    161 C54         1.4310    6.0030    2.3630 c         1 MOL      0.475812
    162 O24         0.7320    6.4800    3.2740 o         1 MOL     -0.545508
    163 C55         0.3510    3.7020    1.8840 c3        1 MOL      0.020570
    164 C56         0.1400    2.5000    0.8390 c3        1 MOL      0.278878
    165 C57        -0.9690    2.8880   -0.1910 c         1 MOL      0.525230
    166 O25        -1.9540    2.1400   -0.3850 o         1 MOL     -0.581399
    167 O26        -0.8490    3.9370   -0.8600 o         1 MOL     -0.581399
    168 H71         2.6020    3.9240    0.4240 hn        1 MOL      0.307928
    169 H72         0.1620    5.5250    0.6770 h1        1 MOL      0.147233
    170 H73        -0.6120    3.8890    2.3400 hc        1 MOL     -0.020422
    171 H74         1.0770    3.3810    2.6290 hc        1 MOL     -0.020422
    172 H75        -0.1680    1.6160    1.4020 hc        1 MOL     -0.090796
    173 H76         1.0530    2.3790    0.2540 hc        1 MOL     -0.090796
    174 N15         2.7360    6.3180    2.3800 n         1 MOL     -0.154187
    175 C58         3.3930    7.1200    3.3390 c3        1 MOL     -0.227311
    176 H77         3.9040    6.4800    4.0580 h1        1 MOL      0.082904
    177 H78         4.1210    7.7600    2.8410 h1        1 MOL      0.082904
    178 H79         2.6610    7.7380    3.8590 h1        1 MOL      0.082904
    179 H80         3.3290    6.1980    1.5680 hn        1 MOL      0.170566
    180 Ca1        -4.1460    1.9110   -1.4800 Ca        1 MOL      1.797296
    181 O27        -6.2680    0.5240   -2.9270 oh        1 MOL     -0.890986
    182 H81        -6.8220   -0.1960   -2.6130 ho        1 MOL      0.420240
    183 H82        -6.1080    0.3170   -3.8470 ho        1 MOL      0.420240
    184 O28        -3.1270    4.2530   -2.1370 oh        1 MOL     -0.890986
    185 H83        -3.4770    5.1440   -2.0720 ho        1 MOL      0.420240
    186 H84        -2.3610    4.2480   -1.5750 ho        1 MOL      0.420240
    187 O29        -2.8120    1.0730   -3.5380 oh        1 MOL     -0.890986
    188 H85        -2.1480    0.3820   -3.5960 ho        1 MOL      0.420240
    189 H86        -2.5500    1.7110   -4.2030 ho        1 MOL      0.420240
@<TRIPOS>BOND
     1    1    2 1   
     2    1    4 1   
     3    1    5 1   
     4    1    6 1   
     5    2    3 2   
     6    2    7 1   
     7    7    8 1   
     8    7   15 1   
     9    8    9 1   
    10    8   11 1   
    11    8   16 1   
    12    9   10 2   
    13    9   19 1   
    14   11   12 1   
    15   11   17 1   
    16   11   18 1   
    17   12   13 1   
    18   12   14 1   
    19   19   20 1   
    20   19   27 1   
    21   20   21 1   
    22   20   23 1   
    23   20   28 1   
    24   21   22 2   
    25   21   38 1   
    26   23   24 1   
    27   23   25 1   
    28   23   29 1   
    29   24   26 1   
    30   24   30 1   
    31   24   31 1   
    32   25   32 1   
    33   25   33 1   
    34   25   34 1   
    35   26   35 1   
    36   26   36 1   
    37   26   37 1   
    38   38   39 1   
    39   38   46 1   
    40   39   40 1   
    41   39   42 1   
    42   39   47 1   
    43   40   41 2   
    44   40   50 1   
    45   42   43 1   
    46   42   48 1   
    47   42   49 1   
    48   43   44 1   
    49   43   45 1   
    50   50   51 1   
    51   50   54 1   
    52   51   52 1   
    53   51   55 1   
    54   51   56 1   
    55   52   53 2   
    56   52   57 1   
    57   57   58 1   
    58   57   65 1   
    59   58   59 1   
    60   58   61 1   
    61   58   66 1   
    62   59   60 2   
    63   59   69 1   
    64   61   62 1   
    65   61   67 1   
    66   61   68 1   
    67   62   63 1   
    68   62   64 1   
    69   69   70 1   
    70   69   73 1   
    71   70   71 1   
    72   70   74 1   
    73   70   75 1   
    74   71   72 2   
    75   71   76 1   
    76   76   77 1   
    77   76   85 1   
    78   77   78 1   
    79   77   80 1   
    80   77   86 1   
    81   78   79 2   
    82   78   93 1   
    83   80   81 1   
    84   80   87 1   
    85   80   88 1   
    86   81   82 1   
    87   81   89 1   
    88   81   90 1   
    89   82   83 1   
    90   82   84 2   
    91   83   91 1   
    92   83   92 1   
    93   93   94 1   
    94   93  100 1   
    95   94   95 1   
    96   94   97 1   
    97   94  101 1   
    98   95   96 2   
    99   95  109 1   
   100   97   98 1   
   101   97   99 1   
   102   97  102 1   
   103   98  103 1   
   104   98  104 1   
   105   98  105 1   
   106   99  106 1   
   107   99  107 1   
   108   99  108 1   
   109  109  110 1   
   110  109  117 1   
   111  110  111 1   
   112  110  113 1   
   113  110  118 1   
   114  111  112 2   
   115  111  123 1   
   116  113  114 1   
   117  113  119 1   
   118  113  120 1   
   119  114  115 1   
   120  114  116 2   
   121  115  121 1   
   122  115  122 1   
   123  123  124 1   
   124  123  135 1   
   125  124  125 1   
   126  124  127 1   
   127  124  136 1   
   128  125  126 2   
   129  125  144 1   
   130  127  128 1   
   131  127  137 1   
   132  127  138 1   
   133  128  129 ar  
   134  128  130 ar  
   135  129  131 ar  
   136  129  139 1   
   137  130  132 ar  
   138  130  140 1   
   139  131  133 ar  
   140  131  141 1   
   141  132  133 ar  
   142  132  142 1   
   143  133  134 1   
   144  134  143 1   
   145  144  145 1   
   146  144  153 1   
   147  145  146 1   
   148  145  148 1   
   149  145  154 1   
   150  146  147 2   
   151  146  159 1   
   152  148  149 1   
   153  148  155 1   
   154  148  156 1   
   155  149  150 1   
   156  149  157 1   
   157  149  158 1   
   158  150  151 1   
   159  150  152 1   
   160  159  160 1   
   161  159  168 1   
   162  160  161 1   
   163  160  163 1   
   164  160  169 1   
   165  161  162 2   
   166  161  174 1   
   167  163  164 1   
   168  163  170 1   
   169  163  171 1   
   170  164  165 1   
   171  164  172 1   
   172  164  173 1   
   173  165  166 1   
   174  165  167 1   
   175  174  175 1   
   176  174  179 1   
   177  175  176 1   
   178  175  177 1   
   179  175  178 1   
   180  181  182 1   
   181  181  183 1   
   182  184  185 1   
   183  184  186 1   
   184  187  188 1   
   185  187  189 1   
@<TRIPOS>SUBSTRUCTURE
     1 MOL         1 TEMP              0 ****  ****    0 ROOT
