@<TRIPOS>MOLECULE
MOL
  184   179     1     0     0
SMALL
resp


@<TRIPOS>ATOM
      1 C1          8.7550    7.6690   -1.3140 c3        1 MOL     -0.309104
      2 C2          7.6760    6.7060   -0.9030 c         1 MOL      0.587294
      3 O1          6.6580    7.0490   -0.2980 o         1 MOL     -0.546554
      4 H1          9.7230    7.1700   -1.2700 hc        1 MOL      0.078452
      5 H2          8.5680    8.0110   -2.3320 hc        1 MOL      0.078452
      6 H3          8.7570    8.5240   -0.6370 hc        1 MOL      0.078452
      7 N1          7.8220    5.4360   -1.3410 n         1 MOL     -0.479011
      8 C3          8.9320    4.6410   -2.0310 c3        1 MOL      0.065103
      9 C4          9.9100    3.9350   -1.0620 c         1 MOL      0.392759
     10 O2         10.9800    3.5170   -1.5450 o         1 MOL     -0.558409
     11 C5          8.3470    3.7100   -3.0900 c3        1 MOL     -0.018123
     12 C6          7.4110    2.5820   -2.5160 c         1 MOL      0.572481
     13 O3          6.7300    1.9180   -3.3620 o         1 MOL     -0.637790
     14 O4          7.5510    2.2210   -1.2960 o         1 MOL     -0.637790
     15 H4          7.0500    4.8820   -0.9790 hn        1 MOL      0.290043
     16 H5          9.5270    5.2400   -2.7180 h1        1 MOL      0.062217
     17 H6          9.1560    3.3610   -3.7440 hc        1 MOL      0.020543
     18 H7          7.6930    4.2150   -3.7950 hc        1 MOL      0.020543
     19 N2          9.6550    3.8680    0.2450 n         1 MOL     -0.210521
     20 C7         10.4920    3.6280    1.3700 c3        1 MOL      0.216284
     21 C8         10.0130    2.4050    2.1220 c         1 MOL      0.378625
     22 O5         10.3150    2.2800    3.2930 o         1 MOL     -0.542316
     23 C9         10.5820    4.9520    2.1440 c3        1 MOL     -0.162792
     24 H8          8.7360    4.1730    0.5020 hn        1 MOL      0.215629
     25 H9         11.4630    3.3340    0.9750 h1        1 MOL      0.026359
     26 H10         9.6670    5.5270    2.2540 hc        1 MOL      0.038190
     27 H11        11.0220    4.7740    3.1280 hc        1 MOL      0.038190
     28 H12        11.3020    5.5690    1.6060 hc        1 MOL      0.038190
     29 N3          9.1460    1.5570    1.5320 n         1 MOL     -0.192167
     30 C10         8.7380    0.2550    2.0980 c3        1 MOL      0.261063
     31 C11         8.9320   -0.8010    1.0000 c         1 MOL      0.139925
     32 O6          8.9480   -0.4750   -0.2310 o         1 MOL     -0.353966
     33 C12         7.3640    0.2250    2.7030 c3        1 MOL     -0.301099
     34 C13         6.3830    0.8960    1.7240 c         1 MOL      0.663080
     35 O7          5.5500    1.7560    2.1110 o         1 MOL     -0.647680
     36 O8          6.1920    0.3910    0.5680 o         1 MOL     -0.647680
     37 H13         8.8210    1.7060    0.5860 hn        1 MOL      0.052796
     38 H14         9.3880   -0.0310    2.9160 h1        1 MOL      0.006864
     39 H15         7.5140    0.7350    3.6550 hc        1 MOL      0.075095
     40 H16         7.1150   -0.8300    2.8190 hc        1 MOL      0.075095
     41 N4          8.8190   -2.0680    1.3730 n         1 MOL     -0.294231
     42 C14         8.6500   -3.1990    0.4480 c3        1 MOL     -0.038128
     43 C15         7.2510   -3.4140   -0.0770 c         1 MOL      0.590272
     44 O9          6.4900   -2.4620   -0.2620 o         1 MOL     -0.470914
     45 H17         8.7110   -2.2460    2.3580 hn        1 MOL      0.285714
     46 H18         8.8930   -4.1660    0.8960 h1        1 MOL      0.050236
     47 H19         9.2860   -3.1290   -0.4320 h1        1 MOL      0.050236
     48 N5          6.9260   -4.7170   -0.1550 n         1 MOL     -0.629541
     49 C16         5.5790   -5.1990   -0.6550 c3        1 MOL      0.415687
     50 C17         4.4260   -4.5630    0.1890 c         1 MOL      0.408203
     51 O10         4.5550   -4.1960    1.3460 o         1 MOL     -0.456808
     52 C18         5.5350   -6.7330   -0.5730 c3        1 MOL     -0.271374
     53 C19         4.2230   -7.2890   -1.1500 c         1 MOL      0.655157
     54 N6          4.1030   -7.2240   -2.4620 n         1 MOL     -0.786139
     55 O11         3.3410   -7.7240   -0.4120 o         1 MOL     -0.532768
     56 H20         7.6350   -5.4070    0.0490 hn        1 MOL      0.327544
     57 H21         5.4780   -4.8380   -1.6800 h1        1 MOL     -0.162590
     58 H22         5.5760   -7.0480    0.4710 hc        1 MOL      0.077305
     59 H23         6.3710   -7.2180   -1.1010 hc        1 MOL      0.077305
     60 H24         4.7890   -6.8250   -3.0910 hn        1 MOL      0.359727
     61 H25         3.2550   -7.6160   -2.8470 hn        1 MOL      0.359727
     62 N7          3.2220   -4.5210   -0.3690 n         1 MOL     -0.418784
     63 C20         2.0030   -4.0840    0.3910 c3        1 MOL     -0.068469
     64 C21         1.7590   -2.5840    0.2860 c         1 MOL      0.571723
     65 O12         2.3130   -1.8480   -0.5220 o         1 MOL     -0.529903
     66 H26         3.1250   -4.8100   -1.3290 hn        1 MOL      0.248963
     67 H27         1.9940   -4.4110    1.4280 h1        1 MOL      0.148067
     68 H28         1.1340   -4.5480   -0.0810 h1        1 MOL      0.148067
     69 N8          0.9560   -1.9600    1.1330 n         1 MOL     -0.508808
     70 C22         0.1880   -2.5580    2.2110 c3        1 MOL     -0.004761
     71 C23        -1.1760   -2.0460    2.3560 c         1 MOL      0.610647
     72 O13        -2.0560   -2.8680    2.5060 o         1 MOL     -0.561337
     73 C24         0.8700   -2.4480    3.5780 c3        1 MOL      0.285439
     74 C25         0.2890   -3.5160    4.5240 c3        1 MOL     -0.226997
     75 O14         2.1860   -2.8310    3.4290 oh        1 MOL     -0.625017
     76 H29         0.8810   -0.9600    1.0140 hn        1 MOL      0.349610
     77 H30         0.1370   -3.6270    1.9930 h1        1 MOL      0.052268
     78 H31         0.8340   -1.4710    4.0480 h1        1 MOL      0.026150
     79 H32         2.7400   -2.0980    3.1350 ho        1 MOL      0.412677
     80 H33         0.7630   -3.5880    5.5050 hc        1 MOL      0.063915
     81 H34        -0.7500   -3.2320    4.7130 hc        1 MOL      0.063915
     82 H35         0.3120   -4.4880    4.0370 hc        1 MOL      0.063915
     83 N9         -1.4880   -0.7420    2.2900 n         1 MOL     -0.429907
     84 C26        -2.8430   -0.1850    2.3290 c3        1 MOL      0.154678
     85 C27        -3.2260    0.3710    0.9890 c         1 MOL      0.284209
     86 O15        -2.4470    1.0880    0.3300 o         1 MOL     -0.547336
     87 C28        -2.8620    0.9440    3.4530 c3        1 MOL      0.046477
     88 C29        -2.5420    0.3910    4.8470 c3        1 MOL     -0.096792
     89 C30        -4.0800    1.8010    3.4640 c3        1 MOL     -0.318321
     90 C31        -3.4700   -0.6380    5.3730 c3        1 MOL     -0.389682
     91 H36        -0.7480   -0.0460    2.3010 hn        1 MOL      0.233867
     92 H37        -3.5220   -0.9670    2.6590 h1        1 MOL      0.149115
     93 H38        -2.0060    1.6070    3.2710 hc        1 MOL      0.004797
     94 H39        -2.6780    1.2200    5.5380 hc        1 MOL      0.041524
     95 H40        -1.4910    0.1080    4.8840 hc        1 MOL      0.041524
     96 H41        -4.8640    1.1750    3.8920 hc        1 MOL      0.113343
     97 H42        -3.9240    2.6150    4.1710 hc        1 MOL      0.113343
     98 H43        -4.3020    2.1100    2.4480 hc        1 MOL      0.113343
     99 H44        -3.2580   -0.7880    6.4300 hc        1 MOL      0.106514
    100 H45        -4.5110   -0.3050    5.4240 hc        1 MOL      0.106514
    101 H46        -3.5290   -1.5720    4.8080 hc        1 MOL      0.106514
    102 N10        -4.3410    0.0100    0.3520 n         1 MOL     -0.192961
    103 C32        -5.4430   -0.9020    0.8250 c3        1 MOL      0.194652
    104 C33        -6.7100   -0.4920    0.0300 c         1 MOL      0.403762
    105 O16        -6.6510    0.4110   -0.8430 o         1 MOL     -0.512752
    106 C34        -5.1750   -2.4300    0.5820 c3        1 MOL     -0.048476
    107 C35        -4.6530   -2.7310   -0.8370 c         1 MOL      0.724173
    108 O17        -3.7490   -2.0340   -1.3700 o         1 MOL     -0.725626
    109 O18        -5.1540   -3.6680   -1.4030 o         1 MOL     -0.725626
    110 H47        -4.5660    0.3900   -0.5590 hn        1 MOL      0.244327
    111 H48        -5.6340   -0.7300    1.8900 h1        1 MOL     -0.054890
    112 H49        -6.0450   -3.0320    0.8170 hc        1 MOL     -0.046051
    113 H50        -4.3580   -2.5830    1.2850 hc        1 MOL     -0.046051
    114 N11        -7.7660   -1.1670    0.2300 n         1 MOL     -0.567841
    115 C36        -9.1040   -1.0280   -0.5600 c3        1 MOL      0.598499
    116 C37       -10.1860   -0.2960    0.3260 c         1 MOL      0.019465
    117 O19       -10.2540   -0.4860    1.5580 o         1 MOL     -0.477129
    118 C38        -9.6580   -2.3690   -1.0270 c3        1 MOL     -0.322219
    119 C39       -10.9160   -2.3140   -1.9360 ca        1 MOL      0.163885
    120 C40       -12.2260   -2.1720   -1.4320 ca        1 MOL     -0.214872
    121 C41       -10.7570   -2.2930   -3.2950 ca        1 MOL     -0.214872
    122 C42       -13.3560   -1.9930   -2.2360 ca        1 MOL     -0.083176
    123 C43       -11.9070   -2.2210   -4.1230 ca        1 MOL     -0.083176
    124 C44       -13.1800   -2.0640   -3.6080 ca        1 MOL     -0.151025
    125 H51        -7.8390   -1.7970    1.0100 hn        1 MOL      0.335901
    126 H52        -8.9320   -0.3410   -1.3890 h1        1 MOL     -0.047417
    127 H53        -9.9240   -2.9930   -0.1710 hc        1 MOL      0.095585
    128 H54        -8.8400   -2.8630   -1.5560 hc        1 MOL      0.095585
    129 H55       -12.3450   -2.1560   -0.3610 ha        1 MOL      0.141396
    130 H56        -9.7830   -2.3300   -3.7480 ha        1 MOL      0.141396
    131 H57       -14.3300   -1.8960   -1.7700 ha        1 MOL      0.098917
    132 H58       -11.7280   -2.2440   -5.1900 ha        1 MOL      0.098917
    133 H59       -13.9220   -1.9130   -4.3780 ha        1 MOL      0.100337
    134 N12       -11.0280    0.6160   -0.2370 n         1 MOL      0.270323
    135 C45       -10.8440    1.2150   -1.5450 c3        1 MOL     -0.023820
    136 C46        -9.7870    2.2890   -1.4980 c         1 MOL      0.624178
    137 O20        -9.4190    2.7340   -2.5490 o         1 MOL     -0.601822
    138 C47       -12.1950    1.8770   -1.8030 c3        1 MOL     -0.016113
    139 C48       -13.2170    1.6430   -0.7260 c3        1 MOL     -0.084547
    140 C49       -12.2950    1.0510    0.3040 c3        1 MOL     -0.057960
    141 H60       -10.5680    0.5460   -2.3510 h1        1 MOL      0.038978
    142 H61       -12.0680    2.9430   -2.0140 hc        1 MOL      0.014867
    143 H62       -12.5230    1.5790   -2.8090 hc        1 MOL      0.014867
    144 H63       -13.6720    2.5810   -0.4310 hc        1 MOL      0.034561
    145 H64       -14.0170    0.9870   -1.0580 hc        1 MOL      0.034561
    146 H65       -12.0080    1.8350    1.0080 h1        1 MOL      0.026089
    147 H66       -12.7690    0.1820    0.7830 h1        1 MOL      0.026089
    148 N13        -9.2790    2.6940   -0.3620 n         1 MOL     -0.613390
    149 C50        -8.1020    3.5940   -0.2110 c3        1 MOL      0.358787
    150 C51        -8.1790    4.9690   -1.0220 c         1 MOL      0.376486
    151 O21        -8.7010    5.9420   -0.4610 o         1 MOL     -0.545225
    152 C52        -7.8240    3.8830    1.2580 c3        1 MOL     -0.020094
    153 C53        -7.3540    2.6920    2.0510 c3        1 MOL     -0.090668
    154 C54        -7.4380    2.7600    3.5550 c         1 MOL      0.731395
    155 O22        -7.4250    3.8460    4.2130 o         1 MOL     -0.704551
    156 O23        -7.6720    1.6980    4.1670 o         1 MOL     -0.704551
    157 H67        -9.5360    2.3210    0.5390 hn        1 MOL      0.324043
    158 H68        -7.1990    3.0770   -0.5350 h1        1 MOL      0.010427
    159 H69        -8.7300    4.2280    1.7640 hc        1 MOL     -0.005795
    160 H70        -7.1210    4.7120    1.3960 hc        1 MOL     -0.005795
    161 H71        -6.3550    2.3980    1.7330 hc        1 MOL     -0.014641
    162 H72        -8.1390    1.9660    1.8410 hc        1 MOL     -0.014641
    163 N14        -7.6860    5.0980   -2.3120 n         1 MOL     -0.334786
    164 C55        -6.7510    4.1930   -3.0520 c3        1 MOL     -0.080804
    165 H73        -7.2520    3.7980   -3.9350 h1        1 MOL      0.064127
    166 H74        -5.8680    4.7540   -3.3560 h1        1 MOL      0.064127
    167 H75        -6.4540    3.3680   -2.4040 h1        1 MOL      0.064127
    168 H76        -7.7450    6.0290   -2.6940 hn        1 MOL      0.255911
    169 Ca1         6.7140   -0.3480   -1.8670 Ca        1 MOL      1.767318
    170 O24         6.4290   -0.7050   -4.9850 oh        1 MOL     -0.848644
    171 H77         6.2430   -0.2060   -5.7840 ho        1 MOL      0.394218
    172 H78         6.0280   -1.5600   -5.1410 ho        1 MOL      0.394218
    173 O25         4.5240   -2.1440   -2.0970 oh        1 MOL     -0.848644
    174 H79         3.8690   -1.9320   -1.4340 ho        1 MOL      0.394218
    175 H80         4.0700   -2.7180   -2.7140 ho        1 MOL      0.394218
    176 O26         7.5420   -2.6350   -2.9920 oh        1 MOL     -0.848644
    177 H81         7.9980   -2.4510   -3.8180 ho        1 MOL      0.394218
    178 H82         6.9320   -3.3450   -3.2120 ho        1 MOL      0.394218
    179 O27         8.9070   -0.0990   -3.3630 oh        1 MOL     -0.848644
    180 H83         9.5840   -0.7050   -3.6760 ho        1 MOL      0.394218
    181 H84         8.5380    0.2740   -4.1600 ho        1 MOL      0.394218
    182 O28         4.1920    0.7070   -2.2560 oh        1 MOL     -0.848644
    183 H85         4.0140    0.6890   -3.1970 ho        1 MOL      0.394218
    184 H86         3.3260    0.8050   -1.8520 ho        1 MOL      0.394218
@<TRIPOS>BOND
     1    1    2 1   
     2    1    4 1   
     3    1    5 1   
     4    1    6 1   
     5    2    3 2   
     6    2    7 1   
     7    7    8 1   
     8    7   15 1   
     9    8    9 1   
    10    8   11 1   
    11    8   16 1   
    12    9   10 2   
    13    9   19 1   
    14   11   12 1   
    15   11   17 1   
    16   11   18 1   
    17   12   13 1   
    18   12   14 1   
    19   19   20 1   
    20   19   24 1   
    21   20   21 1   
    22   20   23 1   
    23   20   25 1   
    24   21   22 2   
    25   21   29 1   
    26   23   26 1   
    27   23   27 1   
    28   23   28 1   
    29   29   30 1   
    30   29   37 1   
    31   30   31 1   
    32   30   33 1   
    33   30   38 1   
    34   31   32 2   
    35   31   41 1   
    36   33   34 1   
    37   33   39 1   
    38   33   40 1   
    39   34   35 1   
    40   34   36 1   
    41   41   42 1   
    42   41   45 1   
    43   42   43 1   
    44   42   46 1   
    45   42   47 1   
    46   43   44 2   
    47   43   48 1   
    48   48   49 1   
    49   48   56 1   
    50   49   50 1   
    51   49   52 1   
    52   49   57 1   
    53   50   51 2   
    54   50   62 1   
    55   52   53 1   
    56   52   58 1   
    57   52   59 1   
    58   53   54 1   
    59   53   55 2   
    60   54   60 1   
    61   54   61 1   
    62   62   63 1   
    63   62   66 1   
    64   63   64 1   
    65   63   67 1   
    66   63   68 1   
    67   64   65 2   
    68   64   69 1   
    69   69   70 1   
    70   69   76 1   
    71   70   71 1   
    72   70   73 1   
    73   70   77 1   
    74   71   72 2   
    75   71   83 1   
    76   73   74 1   
    77   73   75 1   
    78   73   78 1   
    79   74   80 1   
    80   74   81 1   
    81   74   82 1   
    82   75   79 1   
    83   83   84 1   
    84   83   91 1   
    85   84   85 1   
    86   84   87 1   
    87   84   92 1   
    88   85   86 2   
    89   85  102 1   
    90   87   88 1   
    91   87   89 1   
    92   87   93 1   
    93   88   90 1   
    94   88   94 1   
    95   88   95 1   
    96   89   96 1   
    97   89   97 1   
    98   89   98 1   
    99   90   99 1   
   100   90  100 1   
   101   90  101 1   
   102  102  103 1   
   103  102  110 1   
   104  103  104 1   
   105  103  106 1   
   106  103  111 1   
   107  104  105 2   
   108  104  114 1   
   109  106  107 1   
   110  106  112 1   
   111  106  113 1   
   112  107  108 1   
   113  107  109 1   
   114  114  115 1   
   115  114  125 1   
   116  115  116 1   
   117  115  118 1   
   118  115  126 1   
   119  116  117 2   
   120  116  134 1   
   121  118  119 1   
   122  118  127 1   
   123  118  128 1   
   124  119  120 ar  
   125  119  121 ar  
   126  120  122 ar  
   127  120  129 1   
   128  121  123 ar  
   129  121  130 1   
   130  122  124 ar  
   131  122  131 1   
   132  123  124 ar  
   133  123  132 1   
   134  124  133 1   
   135  134  135 1   
   136  134  140 1   
   137  135  136 1   
   138  135  138 1   
   139  135  141 1   
   140  136  137 2   
   141  136  148 1   
   142  138  139 1   
   143  138  142 1   
   144  138  143 1   
   145  139  140 1   
   146  139  144 1   
   147  139  145 1   
   148  140  146 1   
   149  140  147 1   
   150  148  149 1   
   151  148  157 1   
   152  149  150 1   
   153  149  152 1   
   154  149  158 1   
   155  150  151 2   
   156  150  163 1   
   157  152  153 1   
   158  152  159 1   
   159  152  160 1   
   160  153  154 1   
   161  153  161 1   
   162  153  162 1   
   163  154  155 1   
   164  154  156 1   
   165  163  164 1   
   166  163  168 1   
   167  164  165 1   
   168  164  166 1   
   169  164  167 1   
   170  170  171 1   
   171  170  172 1   
   172  173  174 1   
   173  173  175 1   
   174  176  177 1   
   175  176  178 1   
   176  179  180 1   
   177  179  181 1   
   178  182  183 1   
   179  182  184 1   
@<TRIPOS>SUBSTRUCTURE
     1 MOL         1 TEMP              0 ****  ****    0 ROOT
