@<TRIPOS>MOLECULE
MOL
  185   180     1     0     0
SMALL
resp


@<TRIPOS>ATOM
      1 C1          4.0590    3.5200    2.0000 c3        1 MOL     -0.551209
      2 C2          5.1590    2.8890    1.1350 c         1 MOL      0.696207
      3 O1          5.0410    1.7430    0.6600 o         1 MOL     -0.573762
      4 H1          3.1920    3.7440    1.3780 hc        1 MOL      0.149863
      5 H2          3.7700    2.8230    2.7860 hc        1 MOL      0.149863
      6 H3          4.4310    4.4400    2.4480 hc        1 MOL      0.149863
      7 N1          6.2840    3.6100    0.9230 n         1 MOL     -0.543532
      8 C3          7.2980    3.2600   -0.1060 c3        1 MOL      0.027659
      9 C4          8.0430    1.9230    0.0610 c         1 MOL      0.540588
     10 O2          8.7170    1.4210   -0.8520 o         1 MOL     -0.518265
     11 C5          6.9260    3.5370   -1.5530 c3        1 MOL     -0.066228
     12 C6          6.3860    4.9450   -1.7710 c         1 MOL      0.698415
     13 O3          5.7980    5.2090   -2.8120 o         1 MOL     -0.667732
     14 O4          6.7620    5.8260   -0.9440 o         1 MOL     -0.667732
     15 H4          6.2880    4.5570    1.2640 hn        1 MOL      0.293074
     16 H5          8.1530    3.9410   -0.0650 h1        1 MOL      0.050025
     17 H6          6.1490    2.8050   -1.7940 hc        1 MOL      0.040881
     18 H7          7.7260    3.3630   -2.2740 hc        1 MOL      0.040881
     19 N2          7.8870    1.3500    1.2870 n         1 MOL     -0.593770
     20 C7          8.5560    0.1240    1.6270 c3        1 MOL      0.057580
     21 C8          7.6760   -1.0700    1.3360 c         1 MOL      0.632016
     22 O5          8.1230   -2.1790    1.5670 o         1 MOL     -0.597853
     23 C9          8.9310    0.1990    3.1190 c3        1 MOL     -0.068911
     24 C10        10.0460    1.2380    3.3530 c3        1 MOL     -0.024012
     25 C11        10.4980    1.0450    4.7490 c3        1 MOL      0.016081
     26 C12        11.6630    1.9670    5.1320 c3        1 MOL     -0.035301
     27 N3         11.8160    2.1950    6.5790 n4        1 MOL     -0.144932
     28 H8          7.4940    1.9360    2.0060 hn        1 MOL      0.313811
     29 H9          9.4230    0.0040    0.9790 h1        1 MOL      0.102727
     30 H10         9.2660   -0.8090    3.3890 hc        1 MOL      0.032798
     31 H11         8.0640    0.5630    3.6580 hc        1 MOL      0.032798
     32 H12         9.7560    2.2840    3.2530 hc        1 MOL      0.036517
     33 H13        10.9320    0.9940    2.7660 hc        1 MOL      0.036517
     34 H14        10.9480    0.0600    4.8550 hc        1 MOL      0.027408
     35 H15         9.6730    1.0370    5.4670 hc        1 MOL      0.027408
     36 H16        11.4890    2.9370    4.6580 hx        1 MOL      0.084516
     37 H17        12.5980    1.5410    4.7650 hx        1 MOL      0.084516
     38 H18        11.5700    1.3330    7.0460 hn        1 MOL      0.231389
     39 H19        12.7740    2.4580    6.7580 hn        1 MOL      0.231389
     40 H20        11.2240    2.9080    6.9790 hn        1 MOL      0.231389
     41 N4          6.4910   -0.8470    0.7900 n         1 MOL     -0.502562
     42 C13         5.5650   -1.8800    0.4150 c3        1 MOL      0.082686
     43 C14         5.8690   -2.1970   -1.0350 c         1 MOL      0.488246
     44 O6          6.4060   -1.3540   -1.7640 o         1 MOL     -0.415890
     45 C15         4.1090   -1.3960    0.6540 c3        1 MOL     -0.090284
     46 C16         3.0840   -2.4720    0.3170 c         1 MOL      0.671929
     47 O7          2.7230   -2.6110   -0.8560 o         1 MOL     -0.680030
     48 O8          2.5540   -3.1570    1.1640 o         1 MOL     -0.680030
     49 H21         6.3020    0.0660    0.4150 hn        1 MOL      0.336899
     50 H22         5.7270   -2.7940    0.9800 h1        1 MOL      0.040970
     51 H23         3.9520   -0.5370    0.0040 hc        1 MOL      0.052967
     52 H24         3.9350   -1.1530    1.7020 hc        1 MOL      0.052967
     53 N5          5.4280   -3.4010   -1.5260 n         1 MOL     -0.345968
     54 C17         5.5300   -3.8580   -2.8790 c3        1 MOL     -0.306699
     55 C18         4.8220   -2.9290   -3.7940 c         1 MOL      0.555868
     56 O9          5.3480   -2.5600   -4.8560 o         1 MOL     -0.542212
     57 H25         4.8790   -3.9800   -0.9100 hn        1 MOL      0.214571
     58 H26         5.1220   -4.8680   -2.9270 h1        1 MOL      0.148926
     59 H27         6.5880   -3.8170   -3.1460 h1        1 MOL      0.148926
     60 N6          3.5670   -2.4980   -3.5110 n         1 MOL     -0.472210
     61 C19         2.7800   -1.6610   -4.4450 c3        1 MOL      0.227284
     62 C20         2.2550   -0.3610   -3.7940 c         1 MOL      0.460340
     63 O10         1.8510    0.5430   -4.5200 o         1 MOL     -0.529947
     64 C21         1.7300   -2.4210   -5.1790 c3        1 MOL     -0.205698
     65 C22         0.5420   -2.7460   -4.3030 c         1 MOL      0.548807
     66 N7         -0.6330   -2.6990   -4.8880 n         1 MOL     -0.663351
     67 O11         0.6300   -3.0280   -3.1490 o         1 MOL     -0.584267
     68 H28         3.1800   -2.7890   -2.6280 hn        1 MOL      0.279138
     69 H29         3.4210   -1.2650   -5.2320 h1        1 MOL      0.064485
     70 H30         2.0280   -3.2570   -5.8130 hc        1 MOL      0.069074
     71 H31         1.3400   -1.7040   -5.8950 hc        1 MOL      0.069074
     72 H32        -0.6940   -2.6300   -5.8960 hn        1 MOL      0.340786
     73 H33        -1.3950   -3.0620   -4.3330 hn        1 MOL      0.340786
     74 N8          2.2660   -0.3250   -2.4530 n         1 MOL     -0.251460
     75 C23         1.9210    0.8440   -1.7500 c3        1 MOL      0.050052
     76 C24         0.5210    1.4020   -1.8610 c         1 MOL      0.526021
     77 O12        -0.4210    0.6800   -2.3050 o         1 MOL     -0.509551
     78 H34         2.4170   -1.1720   -1.9430 hn        1 MOL      0.117358
     79 H35         2.5740    1.6500   -2.0750 h1        1 MOL      0.059917
     80 H36         2.2090    0.7820   -0.6980 h1        1 MOL      0.059917
     81 N9          0.2230    2.6100   -1.4080 n         1 MOL     -0.585543
     82 C25        -1.1560    3.1750   -1.2970 c3        1 MOL      0.346366
     83 C26        -2.0400    2.2350   -0.3680 c         1 MOL      0.279351
     84 O13        -1.5420    1.4570    0.4580 o         1 MOL     -0.520205
     85 C27        -1.1960    4.6440   -0.9240 c3        1 MOL     -0.061609
     86 C28        -2.4880    5.4280   -0.8110 ca        1 MOL      0.027757
     87 C29        -3.2590    5.6090   -1.9520 ca        1 MOL     -0.157832
     88 C30        -2.8150    5.9800    0.4630 ca        1 MOL     -0.157832
     89 C31        -4.4440    6.3520   -1.8670 ca        1 MOL     -0.244964
     90 C32        -4.0030    6.7460    0.5560 ca        1 MOL     -0.244964
     91 C33        -4.8130    6.8760   -0.6150 ca        1 MOL      0.313616
     92 O14        -5.9620    7.6040   -0.6640 oh        1 MOL     -0.495770
     93 H37         0.9440    3.1510   -0.9520 hn        1 MOL      0.291947
     94 H38        -1.5350    3.1930   -2.3170 h1        1 MOL      0.021034
     95 H39        -0.5210    5.2000   -1.5800 hc        1 MOL      0.038178
     96 H40        -0.8050    4.8020    0.0720 hc        1 MOL      0.038178
     97 H41        -2.8640    5.2900   -2.9010 ha        1 MOL      0.153606
     98 H42        -2.1590    5.8860    1.3210 ha        1 MOL      0.153606
     99 H43        -4.9760    6.5750   -2.7700 ha        1 MOL      0.153753
    100 H44        -4.2830    7.2460    1.4680 ha        1 MOL      0.153753
    101 H45        -6.1010    8.0140    0.1960 ho        1 MOL      0.373990
    102 N10        -3.2860    2.4890   -0.3580 n         1 MOL     -0.176890
    103 C34        -4.2770    1.9380    0.5670 c3        1 MOL      0.157609
    104 C35        -5.3270    1.2250   -0.2810 c         1 MOL      0.305221
    105 O15        -5.3670   -0.0050   -0.3950 o         1 MOL     -0.425546
    106 C36        -4.9260    2.9460    1.6290 c3        1 MOL      0.189833
    107 C37        -3.8240    3.5520    2.4800 c3        1 MOL      0.062844
    108 C38        -6.0170    2.2760    2.4180 c3        1 MOL     -0.481257
    109 C39        -4.3610    4.6590    3.4350 c3        1 MOL     -0.137001
    110 H46        -3.5430    3.1550   -1.0850 hn        1 MOL      0.068644
    111 H47        -3.8340    1.1240    1.1400 h1        1 MOL      0.069757
    112 H48        -5.3920    3.7870    1.1140 hc        1 MOL     -0.077238
    113 H49        -2.9870    3.9850    1.9440 hc        1 MOL      0.009738
    114 H50        -3.3130    2.7960    3.0820 hc        1 MOL      0.009738
    115 H51        -5.5390    1.5170    3.0440 hc        1 MOL      0.126387
    116 H52        -6.4450    2.9090    3.1920 hc        1 MOL      0.126387
    117 H53        -6.8220    1.9380    1.7740 hc        1 MOL      0.126387
    118 H54        -4.9800    5.3420    2.8680 hc        1 MOL      0.021122
    119 H55        -5.0770    4.2120    4.1270 hc        1 MOL      0.021122
    120 H56        -3.5710    5.2310    3.9260 hc        1 MOL      0.021122
    121 N11        -6.1770    1.9940   -0.9300 n         1 MOL     -0.195909
    122 C40        -6.9800    1.4770   -2.0140 c3        1 MOL      0.131259
    123 C41        -8.2070    0.7840   -1.4490 c         1 MOL      0.276825
    124 O16        -8.6420   -0.2300   -1.9300 o         1 MOL     -0.464062
    125 C42        -7.3570    2.5700   -3.0280 c3        1 MOL      0.149083
    126 O17        -6.1800    3.2540   -3.4690 oh        1 MOL     -0.592415
    127 H57        -6.1260    3.0040   -0.9900 hn        1 MOL      0.214459
    128 H58        -6.4930    0.7100   -2.6120 h1        1 MOL      0.113284
    129 H59        -8.0170    3.3340   -2.6230 h1        1 MOL      0.018874
    130 H60        -7.7900    1.9380   -3.8070 h1        1 MOL      0.018874
    131 H61        -6.4360    4.1440   -3.7190 ho        1 MOL      0.406743
    132 N12        -8.6370    1.1110   -0.2320 n         1 MOL     -0.318141
    133 C43        -9.5940    0.3710    0.6220 c3        1 MOL      0.338968
    134 C44        -9.1510   -1.0540    0.9320 c         1 MOL      0.465600
    135 O18        -9.9390   -1.9160    1.1430 o         1 MOL     -0.542326
    136 C45       -10.9840    0.5780    0.1140 c3        1 MOL     -0.329541
    137 H62        -8.2060    1.9440    0.1520 hn        1 MOL      0.157095
    138 H63        -9.5900    0.9060    1.5740 h1        1 MOL      0.000805
    139 H64       -11.0130    0.2010   -0.9110 hc        1 MOL      0.085870
    140 H65       -11.5930    0.0210    0.8260 hc        1 MOL      0.085870
    141 H66       -11.2800    1.6250    0.0810 hc        1 MOL      0.085870
    142 N13        -7.9080   -1.3980    0.9380 n         1 MOL     -0.375880
    143 C46        -7.2590   -2.7060    1.1740 c3        1 MOL      0.309424
    144 C47        -5.9760   -2.6420    1.9920 c         1 MOL      0.402596
    145 O19        -5.2800   -1.6480    2.0790 o         1 MOL     -0.435368
    146 C48        -6.9830   -3.3840   -0.1700 c3        1 MOL     -0.177745
    147 H67        -7.2110   -0.6910    0.7240 hn        1 MOL      0.054581
    148 H68        -7.9540   -3.2680    1.8110 h1        1 MOL     -0.025981
    149 H69        -6.5110   -2.6420   -0.8280 hc        1 MOL      0.057742
    150 H70        -6.3100   -4.2380   -0.1070 hc        1 MOL      0.057742
    151 H71        -7.8750   -3.8100   -0.6240 hc        1 MOL      0.057742
    152 N14        -5.7120   -3.7750    2.6080 n         1 MOL     -0.195304
    153 C49        -4.6340   -3.9830    3.5780 c3        1 MOL     -0.273158
    154 C50        -4.7720   -3.2400    4.9500 c         1 MOL      0.428007
    155 O20        -3.8150   -3.1090    5.6640 o         1 MOL     -0.479610
    156 C51        -3.1490   -3.8030    3.0680 c3        1 MOL      0.269799
    157 C52        -2.8780   -4.7060    1.8830 c3        1 MOL     -0.225019
    158 C53        -1.7100   -4.1850    1.1040 c         1 MOL      0.879680
    159 O21        -1.8650   -4.1900   -0.1600 o         1 MOL     -0.797249
    160 O22        -0.6130   -4.0280    1.6380 o         1 MOL     -0.797249
    161 H72        -6.3320   -4.5550    2.4960 hn        1 MOL      0.204946
    162 H73        -4.6220   -5.0140    3.9250 h1        1 MOL      0.107552
    163 H74        -2.4520   -4.0480    3.8700 hc        1 MOL     -0.011329
    164 H75        -2.9920   -2.7910    2.6960 hc        1 MOL     -0.011329
    165 H76        -3.7560   -4.6670    1.2430 hc        1 MOL      0.014872
    166 H77        -2.6560   -5.6900    2.2930 hc        1 MOL      0.014872
    167 N15        -5.9520   -2.6830    5.2390 n         1 MOL     -0.184486
    168 C54        -6.2730   -1.7870    6.3020 c3        1 MOL     -0.292359
    169 H78        -5.6940   -0.8700    6.1920 h1        1 MOL      0.118327
    170 H79        -7.3370   -1.5490    6.2680 h1        1 MOL      0.118327
    171 H80        -6.0350   -2.2550    7.2570 h1        1 MOL      0.118327
    172 H81        -6.7070   -2.8940    4.6050 hn        1 MOL      0.182452
    173 Ca1         0.6780   -4.1220   -0.7150 Ca        1 MOL      1.720441
    174 O23        -0.3730   -1.7940   -0.5230 oh        1 MOL     -0.823085
    175 H82        -1.1560   -1.6500    0.0040 ho        1 MOL      0.408090
    176 H83        -0.2060   -0.9440   -0.9380 ho        1 MOL      0.408090
    177 O24         0.7820   -6.6630    0.0340 oh        1 MOL     -0.823085
    178 H84         1.6600   -6.9400   -0.2500 ho        1 MOL      0.408090
    179 H85         0.3610   -7.4760    0.3090 ho        1 MOL      0.408090
    180 O25        -0.2470   -6.0380   -2.5880 oh        1 MOL     -0.823085
    181 H86        -0.9420   -5.9640   -3.2490 ho        1 MOL      0.408090
    182 H87         0.3060   -6.7530   -2.8960 ho        1 MOL      0.408090
    183 O26         2.9580   -5.4650   -1.4020 oh        1 MOL     -0.823085
    184 H88         3.1790   -6.2120   -1.9600 ho        1 MOL      0.408090
    185 H89         3.6610   -5.4260   -0.7560 ho        1 MOL      0.408090
@<TRIPOS>BOND
     1    1    2 1   
     2    1    4 1   
     3    1    5 1   
     4    1    6 1   
     5    2    3 2   
     6    2    7 1   
     7    7    8 1   
     8    7   15 1   
     9    8    9 1   
    10    8   11 1   
    11    8   16 1   
    12    9   10 2   
    13    9   19 1   
    14   11   12 1   
    15   11   17 1   
    16   11   18 1   
    17   12   13 1   
    18   12   14 1   
    19   19   20 1   
    20   19   28 1   
    21   20   21 1   
    22   20   23 1   
    23   20   29 1   
    24   21   22 2   
    25   21   41 1   
    26   23   24 1   
    27   23   30 1   
    28   23   31 1   
    29   24   25 1   
    30   24   32 1   
    31   24   33 1   
    32   25   26 1   
    33   25   34 1   
    34   25   35 1   
    35   26   27 1   
    36   26   36 1   
    37   26   37 1   
    38   27   38 1   
    39   27   39 1   
    40   27   40 1   
    41   41   42 1   
    42   41   49 1   
    43   42   43 1   
    44   42   45 1   
    45   42   50 1   
    46   43   44 2   
    47   43   53 1   
    48   45   46 1   
    49   45   51 1   
    50   45   52 1   
    51   46   47 1   
    52   46   48 1   
    53   53   54 1   
    54   53   57 1   
    55   54   55 1   
    56   54   58 1   
    57   54   59 1   
    58   55   56 2   
    59   55   60 1   
    60   60   61 1   
    61   60   68 1   
    62   61   62 1   
    63   61   64 1   
    64   61   69 1   
    65   62   63 2   
    66   62   74 1   
    67   64   65 1   
    68   64   70 1   
    69   64   71 1   
    70   65   66 1   
    71   65   67 2   
    72   66   72 1   
    73   66   73 1   
    74   74   75 1   
    75   74   78 1   
    76   75   76 1   
    77   75   79 1   
    78   75   80 1   
    79   76   77 2   
    80   76   81 1   
    81   81   82 1   
    82   81   93 1   
    83   82   83 1   
    84   82   85 1   
    85   82   94 1   
    86   83   84 2   
    87   83  102 1   
    88   85   86 1   
    89   85   95 1   
    90   85   96 1   
    91   86   87 ar  
    92   86   88 ar  
    93   87   89 ar  
    94   87   97 1   
    95   88   90 ar  
    96   88   98 1   
    97   89   91 ar  
    98   89   99 1   
    99   90   91 ar  
   100   90  100 1   
   101   91   92 1   
   102   92  101 1   
   103  102  103 1   
   104  102  110 1   
   105  103  104 1   
   106  103  106 1   
   107  103  111 1   
   108  104  105 2   
   109  104  121 1   
   110  106  107 1   
   111  106  108 1   
   112  106  112 1   
   113  107  109 1   
   114  107  113 1   
   115  107  114 1   
   116  108  115 1   
   117  108  116 1   
   118  108  117 1   
   119  109  118 1   
   120  109  119 1   
   121  109  120 1   
   122  121  122 1   
   123  121  127 1   
   124  122  123 1   
   125  122  125 1   
   126  122  128 1   
   127  123  124 2   
   128  123  132 1   
   129  125  126 1   
   130  125  129 1   
   131  125  130 1   
   132  126  131 1   
   133  132  133 1   
   134  132  137 1   
   135  133  134 1   
   136  133  136 1   
   137  133  138 1   
   138  134  135 2   
   139  134  142 1   
   140  136  139 1   
   141  136  140 1   
   142  136  141 1   
   143  142  143 1   
   144  142  147 1   
   145  143  144 1   
   146  143  146 1   
   147  143  148 1   
   148  144  145 2   
   149  144  152 1   
   150  146  149 1   
   151  146  150 1   
   152  146  151 1   
   153  152  153 1   
   154  152  161 1   
   155  153  154 1   
   156  153  156 1   
   157  153  162 1   
   158  154  155 2   
   159  154  167 1   
   160  156  157 1   
   161  156  163 1   
   162  156  164 1   
   163  157  158 1   
   164  157  165 1   
   165  157  166 1   
   166  158  159 1   
   167  158  160 1   
   168  167  168 1   
   169  167  172 1   
   170  168  169 1   
   171  168  170 1   
   172  168  171 1   
   173  174  175 1   
   174  174  176 1   
   175  177  178 1   
   176  177  179 1   
   177  180  181 1   
   178  180  182 1   
   179  183  184 1   
   180  183  185 1   
@<TRIPOS>SUBSTRUCTURE
     1 MOL         1 TEMP              0 ****  ****    0 ROOT
