@<TRIPOS>MOLECULE
MOL
  175   173     1     0     0
SMALL
resp


@<TRIPOS>ATOM
      1 C1         -6.9240    7.5390    1.8800 c3        1 MOL     -0.440553
      2 C2         -7.6100    6.6350    0.9440 c         1 MOL      0.787563
      3 O1         -7.7510    6.9360   -0.1910 o         1 MOL     -0.617769
      4 H1         -6.6760    6.9960    2.7920 hc        1 MOL      0.101507
      5 H2         -6.0090    7.9130    1.4200 hc        1 MOL      0.101507
      6 H3         -7.5780    8.3770    2.1220 hc        1 MOL      0.101507
      7 N1         -7.9900    5.4340    1.3160 n         1 MOL     -0.665102
      8 C3         -8.6660    4.4880    0.4000 c3        1 MOL      0.426671
      9 C4         -7.7050    3.4640   -0.1630 c         1 MOL      0.526567
     10 O2         -8.0210    2.3020   -0.1660 o         1 MOL     -0.530084
     11 C5         -9.8880    3.9290    1.0920 c3        1 MOL     -0.246670
     12 C6        -11.0570    3.5190    0.1680 c         1 MOL      0.671547
     13 O3        -11.9820    2.8470    0.7030 o         1 MOL     -0.719974
     14 O4        -11.2260    4.0030   -0.9940 o         1 MOL     -0.719974
     15 H4         -7.8540    5.1580    2.2850 hn        1 MOL      0.299665
     16 H5         -8.9630    5.0570   -0.4770 h1        1 MOL     -0.025153
     17 H6        -10.2680    4.5670    1.8920 hc        1 MOL      0.023068
     18 H7         -9.5800    3.0290    1.6300 hc        1 MOL      0.023068
     19 N2         -6.4870    3.8870   -0.6110 n         1 MOL     -0.631824
     20 C7         -5.4300    2.9820   -1.0970 c3        1 MOL      0.198063
     21 C8         -4.9910    2.1540    0.1120 c         1 MOL      0.499414
     22 O5         -4.5760    2.6580    1.1520 o         1 MOL     -0.552421
     23 C9         -4.3290    3.9590   -1.6630 c3        1 MOL     -0.379404
     24 H8         -6.2380    4.8650   -0.5940 hn        1 MOL      0.340758
     25 H9         -5.7520    2.3290   -1.9070 h1        1 MOL      0.081847
     26 H10        -3.5560    3.3170   -2.0760 hc        1 MOL      0.109296
     27 H11        -4.6130    4.6450   -2.4610 hc        1 MOL      0.109296
     28 H12        -4.0180    4.6680   -0.9000 hc        1 MOL      0.109296
     29 N3         -4.8020    0.8380    0.0090 n         1 MOL     -0.239717
     30 C10        -5.2340   -0.1330   -1.0210 c3        1 MOL     -0.094325
     31 C11        -5.3060   -1.5350   -0.4750 c         1 MOL      0.513319
     32 O6         -4.7330   -1.8630    0.5250 o         1 MOL     -0.490464
     33 C12        -4.1610   -0.0720   -2.1840 c3        1 MOL     -0.264622
     34 C13        -2.8390   -0.5470   -1.6820 c         1 MOL      0.836735
     35 O7         -2.3930   -1.7150   -1.9310 o         1 MOL     -0.750385
     36 O8         -2.1080    0.1770   -0.9990 o         1 MOL     -0.750385
     37 H13        -4.4910    0.4070    0.8750 hn        1 MOL      0.225300
     38 H14        -6.2250    0.1200   -1.3840 h1        1 MOL      0.068390
     39 H15        -4.0440    0.9310   -2.6050 hc        1 MOL      0.052841
     40 H16        -4.3450   -0.7680   -2.9990 hc        1 MOL      0.052841
     41 N4         -6.0580   -2.3890   -1.1570 n         1 MOL     -0.308276
     42 C14        -6.2970   -3.7800   -0.7340 c3        1 MOL     -0.099766
     43 C15        -6.0940   -4.7890   -1.8450 c         1 MOL      0.588637
     44 O9         -7.0300   -4.9500   -2.6100 o         1 MOL     -0.557285
     45 H17        -6.5080   -2.0110   -1.9770 hn        1 MOL      0.288245
     46 H18        -7.3250   -3.8030   -0.3660 h1        1 MOL      0.087194
     47 H19        -5.6950   -3.9670    0.1610 h1        1 MOL      0.087194
     48 N5         -4.9270   -5.4330   -2.0000 n         1 MOL     -0.548492
     49 C16        -3.6330   -4.8860   -1.4880 c3        1 MOL      0.288164
     50 C17        -3.4670   -5.2930   -0.0250 c         1 MOL      0.346990
     51 O10        -3.4640   -6.4840    0.2460 o         1 MOL     -0.554414
     52 C18        -2.4980   -5.1590   -2.4970 c3        1 MOL     -0.070362
     53 C19        -1.1410   -4.5500   -2.1320 c         1 MOL      0.492431
     54 N6         -0.2410   -4.6320   -2.9850 n         1 MOL     -0.625856
     55 O11        -0.8680   -4.0670   -1.0580 o         1 MOL     -0.518750
     56 H20        -4.8240   -6.2310   -2.6090 hn        1 MOL      0.299932
     57 H21        -3.7980   -3.8160   -1.3830 h1        1 MOL     -0.068871
     58 H22        -2.7990   -4.8100   -3.4890 hc        1 MOL      0.035885
     59 H23        -2.4280   -6.2490   -2.5770 hc        1 MOL      0.035885
     60 H24        -0.3340   -5.0480   -3.9040 hn        1 MOL      0.325934
     61 H25         0.5960   -4.1250   -2.7500 hn        1 MOL      0.325934
     62 N7         -3.2410   -4.3550    0.8900 n         1 MOL      0.034823
     63 C20        -2.9950   -4.7100    2.2810 c3        1 MOL     -0.386067
     64 C21        -1.6090   -5.0830    2.7050 c         1 MOL      0.631203
     65 O12        -1.4170   -5.3950    3.9030 o         1 MOL     -0.601985
     66 H26        -3.3300   -3.3790    0.6170 hn        1 MOL      0.115378
     67 H27        -3.6810   -5.5130    2.5640 h1        1 MOL      0.134709
     68 H28        -3.1990   -3.8100    2.8600 h1        1 MOL      0.134709
     69 N8         -0.5740   -5.0010    1.8690 n         1 MOL     -0.275361
     70 C22         0.8380   -4.9530    2.1920 c3        1 MOL      0.068131
     71 C23         1.3690   -3.4800    2.1320 c         1 MOL      0.232893
     72 O13         0.6590   -2.5440    1.6520 o         1 MOL     -0.437384
     73 C24         1.7490   -5.7790    1.2530 c3        1 MOL      0.134377
     74 C25         1.4020   -7.2520    1.6420 c3        1 MOL     -0.223722
     75 O14         1.3070   -5.4940   -0.0920 oh        1 MOL     -0.496458
     76 H29        -0.8840   -4.6450    0.9760 hn        1 MOL      0.253333
     77 H30         0.8780   -5.2490    3.2400 h1        1 MOL      0.035378
     78 H31         2.7880   -5.5010    1.3970 h1        1 MOL      0.059124
     79 H32         1.6490   -4.6170   -0.2860 ho        1 MOL      0.259880
     80 H33         0.3450   -7.4190    1.8510 hc        1 MOL      0.058332
     81 H34         1.6790   -7.9420    0.8410 hc        1 MOL      0.058332
     82 H35         1.9980   -7.6020    2.4850 hc        1 MOL      0.058332
     83 N9          2.5950   -3.3300    2.6010 n         1 MOL      0.015142
     84 C26         3.4440   -2.1250    2.4630 c3        1 MOL     -0.228979
     85 C27         4.4530   -2.4160    1.3630 c         1 MOL      0.432384
     86 O15         5.3970   -3.1260    1.6980 o         1 MOL     -0.570012
     87 C28         4.0160   -1.7780    3.8430 c3        1 MOL      0.222376
     88 C29         4.9130   -0.5120    3.8270 c3        1 MOL      0.063876
     89 C30         2.8830   -1.6540    4.8420 c3        1 MOL     -0.319203
     90 C31         5.8250   -0.2850    5.1130 c3        1 MOL     -0.327436
     91 H36         2.9760   -4.1920    2.9530 hn        1 MOL      0.163781
     92 H37         2.8310   -1.3370    2.0070 h1        1 MOL      0.049214
     93 H38         4.6030   -2.6320    4.1600 hc        1 MOL     -0.005369
     94 H39         4.2820    0.3710    3.9040 hc        1 MOL      0.025056
     95 H40         5.5150   -0.4880    2.9200 hc        1 MOL      0.025056
     96 H41         2.0100   -1.1730    4.3950 hc        1 MOL      0.072317
     97 H42         2.5290   -2.6630    5.0830 hc        1 MOL      0.072317
     98 H43         3.1290   -1.1220    5.7530 hc        1 MOL      0.072317
     99 H44         5.2340    0.0690    5.9440 hc        1 MOL      0.073804
    100 H45         6.2410   -1.2830    5.2920 hc        1 MOL      0.073804
    101 H46         6.5620    0.4870    4.8540 hc        1 MOL      0.073804
    102 N10         4.2250   -1.9510    0.1360 n         1 MOL     -0.177440
    103 C32         4.9760   -2.4150   -1.0680 c3        1 MOL      0.187670
    104 C33         5.2910   -1.2340   -2.0430 c         1 MOL      0.347849
    105 O16         5.3110   -1.4360   -3.2380 o         1 MOL     -0.493854
    106 C34         4.1850   -3.5590   -1.7360 c3        1 MOL     -0.280398
    107 C35         2.7010   -3.0560   -1.9490 c         1 MOL      0.771127
    108 O17         1.8810   -3.0530   -0.9860 o         1 MOL     -0.689983
    109 O18         2.3040   -2.6350   -3.0680 o         1 MOL     -0.689983
    110 H47         3.4010   -1.4050   -0.1000 hn        1 MOL      0.115057
    111 H48         5.8930   -2.8630   -0.6870 h1        1 MOL      0.025298
    112 H49         4.1760   -4.4600   -1.1200 hc        1 MOL      0.072919
    113 H50         4.5350   -3.7180   -2.7590 hc        1 MOL      0.072919
    114 N11         5.4800   -0.0200   -1.4940 n         1 MOL     -0.183656
    115 C36         5.8070    1.1810   -2.3480 c3        1 MOL     -0.108025
    116 C37         5.5810    2.3970   -1.3630 c         1 MOL      0.437610
    117 O19         5.5220    2.2310   -0.1270 o         1 MOL     -0.422942
    118 C38         7.2480    1.1860   -2.8210 c3        1 MOL      0.013362
    119 C39         8.2870    1.5590   -1.7450 ca        1 MOL     -0.207176
    120 C40         8.7270    0.6140   -0.7540 ca        1 MOL      0.081163
    121 C41         8.7970    2.8650   -1.6540 ca        1 MOL      0.081163
    122 C42         9.6440    0.9780    0.2120 ca        1 MOL     -0.272379
    123 C43         9.6910    3.2130   -0.6550 ca        1 MOL     -0.272379
    124 C44        10.1240    2.2740    0.2810 ca        1 MOL      0.021973
    125 H51         5.5270    0.0190   -0.4840 hn        1 MOL      0.173260
    126 H52         5.1600    1.1250   -3.2120 h1        1 MOL      0.121704
    127 H53         7.2730    1.7810   -3.7310 hc        1 MOL      0.056638
    128 H54         7.5580    0.2860   -3.3520 hc        1 MOL      0.056638
    129 H55         8.4310   -0.4210   -0.8040 ha        1 MOL      0.066427
    130 H56         8.6210    3.6530   -2.3780 ha        1 MOL      0.066427
    131 H57        10.0460    0.2710    0.9320 ha        1 MOL      0.142877
    132 H58         9.8810    4.2510   -0.4120 ha        1 MOL      0.142877
    133 H59        10.7910    2.6480    1.0500 ha        1 MOL      0.075324
    134 N12         5.4810    3.6360   -1.9340 n         1 MOL     -0.145583
    135 C45         5.6190    4.8660   -1.1840 c3        1 MOL     -0.080748
    136 C46         4.4400    5.2410   -0.1700 c         1 MOL      0.599235
    137 O20         4.5100    6.2450    0.4810 o         1 MOL     -0.556155
    138 C47         5.9400    5.9980   -2.1200 c3        1 MOL     -0.097906
    139 C48         5.3770    5.5540   -3.4460 c3        1 MOL     -0.064578
    140 C49         5.5600    4.0220   -3.3460 c3        1 MOL     -0.114276
    141 H60         6.5750    4.7700   -0.6630 h1        1 MOL      0.052819
    142 H61         5.4640    6.9290   -1.8240 hc        1 MOL      0.067058
    143 H62         7.0190    6.1310   -2.0640 hc        1 MOL      0.067058
    144 H63         4.3130    5.7690   -3.6000 hc        1 MOL      0.061323
    145 H64         6.0270    5.8690   -4.2560 hc        1 MOL      0.061323
    146 H65         4.7710    3.5490   -3.9290 h1        1 MOL      0.069005
    147 H66         6.5850    3.8310   -3.6410 h1        1 MOL      0.069005
    148 N13         3.4340    4.3170    0.0560 n         1 MOL     -0.367402
    149 C50         2.1150    4.5150    0.7100 c3        1 MOL      0.004708
    150 C51         2.3190    5.0630    2.0860 c         1 MOL      0.427800
    151 O21         1.5490    5.9410    2.6090 o         1 MOL     -0.556473
    152 C52         1.2730    3.2430    0.7480 c3        1 MOL     -0.247708
    153 C53         2.0490    1.9960    1.2810 c3        1 MOL      0.220278
    154 C54         1.3310    0.7440    0.8100 c         1 MOL      0.598738
    155 O22         2.0900    0.0530    0.0380 o         1 MOL     -0.685922
    156 O23         0.1680    0.4440    1.0550 o         1 MOL     -0.685922
    157 H67         3.6170    3.4420   -0.3980 hn        1 MOL      0.224646
    158 H68         1.6620    5.2730    0.0730 h1        1 MOL      0.086344
    159 H69         1.0410    2.9230   -0.2680 hc        1 MOL      0.102687
    160 H70         0.3990    3.4380    1.3760 hc        1 MOL      0.102687
    161 H71         2.1560    2.0390    2.3610 hc        1 MOL     -0.093540
    162 H72         3.0860    1.9950    0.9500 hc        1 MOL     -0.093540
    163 N14         3.3630    4.5780    2.7360 n         1 MOL      0.027366
    164 C55         3.5070    4.8590    4.1540 c3        1 MOL     -0.305991
    165 H73         3.5340    3.9220    4.7090 h1        1 MOL      0.108132
    166 H74         4.4330    5.4080    4.3230 h1        1 MOL      0.108132
    167 H75         2.6620    5.4580    4.4940 h1        1 MOL      0.108132
    168 H76         4.1100    4.2160    2.1590 hn        1 MOL      0.128501
    169 Ca1        -0.1370   -1.3640   -0.6370 Ca        1 MOL      1.769155
    170 O24         0.3590   -0.3160   -2.8850 oh        1 MOL     -0.966088
    171 H77         0.1700    0.4530   -3.4330 ho        1 MOL      0.451980
    172 H78         1.1570   -0.6870   -3.2570 ho        1 MOL      0.451980
    173 O25        -2.0920   -1.6220    1.2790 oh        1 MOL     -0.966088
    174 H79        -3.0190   -1.3920    1.2840 ho        1 MOL      0.451980
    175 H80        -1.7600   -1.2950    2.1140 ho        1 MOL      0.451980
@<TRIPOS>BOND
     1    1    2 1   
     2    1    4 1   
     3    1    5 1   
     4    1    6 1   
     5    2    3 2   
     6    2    7 1   
     7    7    8 1   
     8    7   15 1   
     9    8    9 1   
    10    8   11 1   
    11    8   16 1   
    12    9   10 2   
    13    9   19 1   
    14   11   12 1   
    15   11   17 1   
    16   11   18 1   
    17   12   13 1   
    18   12   14 1   
    19   19   20 1   
    20   19   24 1   
    21   20   21 1   
    22   20   23 1   
    23   20   25 1   
    24   21   22 2   
    25   21   29 1   
    26   23   26 1   
    27   23   27 1   
    28   23   28 1   
    29   29   30 1   
    30   29   37 1   
    31   30   31 1   
    32   30   33 1   
    33   30   38 1   
    34   31   32 2   
    35   31   41 1   
    36   33   34 1   
    37   33   39 1   
    38   33   40 1   
    39   34   35 1   
    40   34   36 1   
    41   41   42 1   
    42   41   45 1   
    43   42   43 1   
    44   42   46 1   
    45   42   47 1   
    46   43   44 2   
    47   43   48 1   
    48   48   49 1   
    49   48   56 1   
    50   49   50 1   
    51   49   52 1   
    52   49   57 1   
    53   50   51 2   
    54   50   62 1   
    55   52   53 1   
    56   52   58 1   
    57   52   59 1   
    58   53   54 1   
    59   53   55 2   
    60   54   60 1   
    61   54   61 1   
    62   62   63 1   
    63   62   66 1   
    64   63   64 1   
    65   63   67 1   
    66   63   68 1   
    67   64   65 2   
    68   64   69 1   
    69   69   70 1   
    70   69   76 1   
    71   70   71 1   
    72   70   73 1   
    73   70   77 1   
    74   71   72 2   
    75   71   83 1   
    76   73   74 1   
    77   73   75 1   
    78   73   78 1   
    79   74   80 1   
    80   74   81 1   
    81   74   82 1   
    82   75   79 1   
    83   83   84 1   
    84   83   91 1   
    85   84   85 1   
    86   84   87 1   
    87   84   92 1   
    88   85   86 2   
    89   85  102 1   
    90   87   88 1   
    91   87   89 1   
    92   87   93 1   
    93   88   90 1   
    94   88   94 1   
    95   88   95 1   
    96   89   96 1   
    97   89   97 1   
    98   89   98 1   
    99   90   99 1   
   100   90  100 1   
   101   90  101 1   
   102  102  103 1   
   103  102  110 1   
   104  103  104 1   
   105  103  106 1   
   106  103  111 1   
   107  104  105 2   
   108  104  114 1   
   109  106  107 1   
   110  106  112 1   
   111  106  113 1   
   112  107  108 1   
   113  107  109 1   
   114  114  115 1   
   115  114  125 1   
   116  115  116 1   
   117  115  118 1   
   118  115  126 1   
   119  116  117 2   
   120  116  134 1   
   121  118  119 1   
   122  118  127 1   
   123  118  128 1   
   124  119  120 ar  
   125  119  121 ar  
   126  120  122 ar  
   127  120  129 1   
   128  121  123 ar  
   129  121  130 1   
   130  122  124 ar  
   131  122  131 1   
   132  123  124 ar  
   133  123  132 1   
   134  124  133 1   
   135  134  135 1   
   136  134  140 1   
   137  135  136 1   
   138  135  138 1   
   139  135  141 1   
   140  136  137 2   
   141  136  148 1   
   142  138  139 1   
   143  138  142 1   
   144  138  143 1   
   145  139  140 1   
   146  139  144 1   
   147  139  145 1   
   148  140  146 1   
   149  140  147 1   
   150  148  149 1   
   151  148  157 1   
   152  149  150 1   
   153  149  152 1   
   154  149  158 1   
   155  150  151 2   
   156  150  163 1   
   157  152  153 1   
   158  152  159 1   
   159  152  160 1   
   160  153  154 1   
   161  153  161 1   
   162  153  162 1   
   163  154  155 1   
   164  154  156 1   
   165  163  164 1   
   166  163  168 1   
   167  164  165 1   
   168  164  166 1   
   169  164  167 1   
   170  170  171 1   
   171  170  172 1   
   172  173  174 1   
   173  173  175 1   
@<TRIPOS>SUBSTRUCTURE
     1 MOL         1 TEMP              0 ****  ****    0 ROOT
