@<TRIPOS>MOLECULE
MOL
  184   179     1     0     0
SMALL
resp


@<TRIPOS>ATOM
      1 C1          5.6340    6.2820   -4.9760 c3        1 MOL     -0.258911
      2 C2          5.3940    4.8110   -4.6670 c         1 MOL      0.689830
      3 O1          4.5930    4.1000   -5.2560 o         1 MOL     -0.578439
      4 H1          6.3530    6.6890   -4.2660 hc        1 MOL      0.060359
      5 H2          6.0270    6.3820   -5.9870 hc        1 MOL      0.060359
      6 H3          4.6950    6.8290   -4.8950 hc        1 MOL      0.060359
      7 N1          6.0670    4.1890   -3.6800 n         1 MOL     -0.631955
      8 C3          6.9990    4.7780   -2.7070 c3        1 MOL      0.418350
      9 C4          6.4720    4.7040   -1.2900 c         1 MOL      0.438717
     10 O2          5.3040    4.4150   -1.0790 o         1 MOL     -0.465228
     11 C5          8.4270    4.1540   -2.8940 c3        1 MOL     -0.412747
     12 C6          8.4840    2.8000   -2.2110 c         1 MOL      0.789492
     13 O3          8.1500    1.7920   -2.8390 o         1 MOL     -0.713855
     14 O4          8.7370    2.6750   -1.0010 o         1 MOL     -0.713855
     15 H4          5.8170    3.2320   -3.5090 hn        1 MOL      0.338682
     16 H5          7.1630    5.8360   -2.9220 h1        1 MOL      0.022412
     17 H6          9.0530    4.9200   -2.4480 hc        1 MOL      0.062473
     18 H7          8.5920    4.0920   -3.9690 hc        1 MOL      0.062473
     19 N2          7.2230    5.2370   -0.3480 n         1 MOL     -0.709022
     20 C7          6.7400    5.3050    1.0480 c3        1 MOL      0.366293
     21 C8          6.3780    4.0750    1.9220 c         1 MOL      0.466623
     22 O5          6.6070    4.1630    3.1110 o         1 MOL     -0.561732
     23 C9          5.6780    6.3880    1.0670 c3        1 MOL     -0.336910
     24 H8          8.0690    5.7320   -0.6020 hn        1 MOL      0.348884
     25 H9          7.5630    5.7120    1.6360 h1        1 MOL      0.013899
     26 H10         5.7440    6.8500    2.0620 hc        1 MOL      0.087142
     27 H11         5.8420    7.2380    0.4050 hc        1 MOL      0.087142
     28 H12         4.6850    5.9960    0.8660 hc        1 MOL      0.087142
     29 N3          5.9000    3.0180    1.2450 n         1 MOL     -0.272415
     30 C10         5.3750    1.7940    1.8220 c3        1 MOL      0.004520
     31 C11         6.5140    0.8490    2.2610 c         1 MOL      0.476101
     32 O6          7.5450    0.6890    1.5630 o         1 MOL     -0.486306
     33 C12         4.3020    0.9430    1.0800 c3        1 MOL     -0.074305
     34 C13         4.7910    0.2740   -0.2160 c         1 MOL      0.704224
     35 O7          4.1240   -0.7130   -0.5550 o         1 MOL     -0.654158
     36 O8          5.6530    0.7790   -0.9860 o         1 MOL     -0.654158
     37 H13         5.9390    3.0490    0.2270 hn        1 MOL      0.157603
     38 H14         4.8510    2.1290    2.7140 h1        1 MOL      0.062306
     39 H15         3.4280    1.5580    0.8790 hc        1 MOL      0.033095
     40 H16         4.0400    0.1450    1.7810 hc        1 MOL      0.033095
     41 N4          6.3790    0.2290    3.4230 n         1 MOL     -0.396131
     42 C14         7.3720   -0.6720    4.0460 c3        1 MOL     -0.076448
     43 C15         7.2480   -2.0790    3.4810 c         1 MOL      0.416637
     44 O9          8.2510   -2.7610    3.3900 o         1 MOL     -0.523641
     45 H17         5.6810    0.5890    4.0480 hn        1 MOL      0.283908
     46 H18         7.2560   -0.6250    5.1260 h1        1 MOL      0.114495
     47 H19         8.3690   -0.3370    3.7480 h1        1 MOL      0.114495
     48 N5          6.0340   -2.5300    3.1350 n         1 MOL     -0.352519
     49 C16         5.6590   -3.8440    2.6000 c3        1 MOL      0.010028
     50 C17         4.3100   -3.6880    1.8310 c         1 MOL      0.530873
     51 O10         3.3040   -3.1520    2.3250 o         1 MOL     -0.445705
     52 C18         5.4850   -4.8730    3.7460 c3        1 MOL     -0.201648
     53 C19         6.6660   -5.2340    4.5420 c         1 MOL      0.523996
     54 N6          7.3970   -6.2950    4.2150 n         1 MOL     -0.650529
     55 O11         7.0130   -4.4980    5.4510 o         1 MOL     -0.498078
     56 H20         5.2660   -1.9990    3.5250 hn        1 MOL      0.256425
     57 H21         6.4750   -4.1710    1.9420 h1        1 MOL      0.108511
     58 H22         5.1530   -5.8490    3.4100 hc        1 MOL      0.084497
     59 H23         4.6500   -4.5140    4.3600 hc        1 MOL      0.084497
     60 H24         7.0090   -6.9090    3.5180 hn        1 MOL      0.319622
     61 H25         7.9630   -6.5980    5.0000 hn        1 MOL      0.319622
     62 N7          4.2210   -4.3800    0.6920 n         1 MOL     -0.527545
     63 C20         3.1010   -4.3310   -0.3250 c3        1 MOL     -0.028323
     64 C21         1.7900   -4.8930    0.1270 c         1 MOL      0.595796
     65 O12         1.7280   -5.6990    1.0320 o         1 MOL     -0.561521
     66 H26         4.9040   -5.1030    0.5090 hn        1 MOL      0.290277
     67 H27         3.4630   -4.8390   -1.2170 h1        1 MOL      0.089616
     68 H28         2.9050   -3.3000   -0.6260 h1        1 MOL      0.089616
     69 N8          0.6390   -4.4080   -0.3380 n         1 MOL     -0.390187
     70 C22         0.3810   -3.5610   -1.5030 c3        1 MOL     -0.381615
     71 C23        -1.1130   -3.0700   -1.4660 c         1 MOL      0.744597
     72 O13        -2.0790   -3.8670   -1.4090 o         1 MOL     -0.528775
     73 C24         0.5240   -4.3750   -2.7870 c3        1 MOL      0.462046
     74 C25         0.4950   -3.4600   -4.0830 c3        1 MOL     -0.321927
     75 O14         1.7040   -5.1790   -2.9350 oh        1 MOL     -0.670610
     76 H29        -0.2150   -4.6240    0.1560 hn        1 MOL      0.284165
     77 H30         1.0530   -2.7050   -1.4490 h1        1 MOL      0.186000
     78 H31        -0.3470   -5.0370   -2.7910 h1        1 MOL      0.002922
     79 H32         1.7070   -5.4610   -3.8560 ho        1 MOL      0.397197
     80 H33        -0.3780   -2.8450   -4.2830 hc        1 MOL      0.076527
     81 H34         1.4590   -2.9750   -4.2320 hc        1 MOL      0.076527
     82 H35         0.4000   -4.1880   -4.8890 hc        1 MOL      0.076527
     83 N9         -1.3400   -1.7700   -1.5110 n         1 MOL     -0.558174
     84 C26        -2.7130   -1.2180   -1.5960 c3        1 MOL     -0.002078
     85 C27        -3.4000   -1.7740   -2.9160 c         1 MOL      0.536625
     86 O15        -2.7740   -1.7960   -3.9560 o         1 MOL     -0.551407
     87 C28        -2.6640    0.3320   -1.4010 c3        1 MOL      0.064054
     88 C29        -3.9760    0.8560   -0.7620 c3        1 MOL      0.128357
     89 C30        -2.3630    1.0610   -2.7390 c3        1 MOL     -0.274049
     90 C31        -4.2700    2.2940   -0.8590 c3        1 MOL     -0.149194
     91 H36        -0.5050   -1.2240   -1.6420 hn        1 MOL      0.297445
     92 H37        -3.2030   -1.6480   -0.7140 h1        1 MOL      0.091206
     93 H38        -1.8570    0.6010   -0.7140 hc        1 MOL      0.035825
     94 H39        -3.7960    0.5060    0.2530 hc        1 MOL     -0.010908
     95 H40        -4.8540    0.3010   -1.0960 hc        1 MOL     -0.010908
     96 H41        -2.2110    2.1400   -2.6340 hc        1 MOL      0.074590
     97 H42        -1.4710    0.6430   -3.1990 hc        1 MOL      0.074590
     98 H43        -3.1170    0.8480   -3.5030 hc        1 MOL      0.074590
     99 H44        -4.2650    2.5020   -1.9310 hc        1 MOL      0.027436
    100 H45        -5.2590    2.5660   -0.4730 hc        1 MOL      0.027436
    101 H46        -3.6500    2.9980   -0.3110 hc        1 MOL      0.027436
    102 N10        -4.6310   -2.2970   -2.9630 n         1 MOL     -0.445438
    103 C32        -5.5010   -2.7400   -1.9320 c3        1 MOL      0.174904
    104 C33        -6.6370   -1.7150   -1.7210 c         1 MOL      0.525416
    105 O16        -6.7470   -0.7110   -2.4440 o         1 MOL     -0.542476
    106 C34        -6.1840   -4.0800   -2.2060 c3        1 MOL     -0.106527
    107 C35        -6.8580   -4.1400   -3.5690 c         1 MOL      0.746845
    108 O17        -8.0600   -3.8920   -3.6610 o         1 MOL     -0.731160
    109 O18        -6.1440   -4.4030   -4.5510 o         1 MOL     -0.731160
    110 H47        -5.0150   -2.3800   -3.8950 hn        1 MOL      0.317458
    111 H48        -4.8620   -2.8390   -1.0550 h1        1 MOL      0.021087
    112 H49        -6.8410   -4.3720   -1.3900 hc        1 MOL     -0.014707
    113 H50        -5.4430   -4.8710   -2.2010 hc        1 MOL     -0.014707
    114 N11        -7.4140   -1.8820   -0.6750 n         1 MOL     -0.732693
    115 C36        -8.6110   -1.0380   -0.4710 c3        1 MOL      0.483775
    116 C37        -9.2110   -1.2710    0.9500 c         1 MOL      0.194120
    117 O19        -9.1590   -2.4470    1.3670 o         1 MOL     -0.515795
    118 C38        -9.6920   -1.4540   -1.4650 c3        1 MOL     -0.353802
    119 C39       -10.9190   -0.6040   -1.2280 ca        1 MOL      0.097210
    120 C40       -11.9220   -0.9200   -0.2550 ca        1 MOL     -0.102814
    121 C41       -11.1240    0.6150   -1.9070 ca        1 MOL     -0.102814
    122 C42       -13.0080   -0.0460    0.0650 ca        1 MOL     -0.196486
    123 C43       -12.0960    1.5600   -1.4750 ca        1 MOL     -0.196486
    124 C44       -13.0050    1.2150   -0.5700 ca        1 MOL     -0.051769
    125 H51        -7.3440   -2.6350   -0.0080 hn        1 MOL      0.374198
    126 H52        -8.2980   -0.0180   -0.6640 h1        1 MOL      0.019365
    127 H53       -10.0070   -2.4450   -1.1490 hc        1 MOL      0.139069
    128 H54        -9.3260   -1.5010   -2.4860 hc        1 MOL      0.139069
    129 H55       -11.9450   -1.9370    0.1090 ha        1 MOL      0.099213
    130 H56       -10.3050    0.9080   -2.5510 ha        1 MOL      0.099213
    131 H57       -13.5760   -0.1760    0.9730 ha        1 MOL      0.115566
    132 H58       -12.0630    2.5490   -1.9140 ha        1 MOL      0.115566
    133 H59       -13.7000    1.9980   -0.2960 ha        1 MOL      0.070268
    134 N12        -9.6490   -0.2500    1.6660 n         1 MOL      0.303399
    135 C45        -9.5130    1.2180    1.3740 c3        1 MOL     -0.221782
    136 C46        -8.0860    1.7750    1.5520 c         1 MOL      0.704126
    137 O20        -7.1220    1.0590    1.4770 o         1 MOL     -0.589131
    138 C47       -10.5760    1.8920    2.3390 c3        1 MOL     -0.123648
    139 C48       -10.5870    0.9740    3.5220 c3        1 MOL      0.062402
    140 C49       -10.0950   -0.3780    3.0380 c3        1 MOL     -0.266526
    141 H60        -9.7340    1.4130    0.3220 h1        1 MOL      0.024939
    142 H61       -10.4720    2.9340    2.6110 hc        1 MOL      0.039354
    143 H62       -11.5650    1.8350    1.8810 hc        1 MOL      0.039354
    144 H63        -9.8340    1.4140    4.1780 hc        1 MOL      0.028187
    145 H64       -11.4970    1.0690    4.1160 hc        1 MOL      0.028187
    146 H65        -9.2290   -0.7410    3.5900 h1        1 MOL      0.086139
    147 H66       -10.8730   -1.1360    2.9640 h1        1 MOL      0.086139
    148 N13        -7.9150    3.0090    1.9010 n         1 MOL     -0.422332
    149 C50        -6.6590    3.8100    1.9620 c3        1 MOL      0.051875
    150 C51        -6.7960    5.2750    1.5570 c         1 MOL      0.457084
    151 O21        -6.6440    6.2710    2.3060 o         1 MOL     -0.553673
    152 C52        -5.9850    3.6730    3.3560 c3        1 MOL      0.067741
    153 C53        -5.4070    2.3140    3.7150 c3        1 MOL     -0.092296
    154 C54        -4.6330    2.2210    5.0750 c         1 MOL      0.619879
    155 O22        -3.5420    2.8590    5.2470 o         1 MOL     -0.669145
    156 O23        -5.2200    1.6650    6.0390 o         1 MOL     -0.669145
    157 H67        -8.7530    3.4950    2.2210 hn        1 MOL      0.266111
    158 H68        -5.9950    3.3250    1.2350 h1        1 MOL      0.105123
    159 H69        -6.6840    3.9030    4.1600 hc        1 MOL     -0.003275
    160 H70        -5.0970    4.2850    3.4830 hc        1 MOL     -0.003275
    161 H71        -4.7500    1.9530    2.9230 hc        1 MOL      0.000330
    162 H72        -6.2820    1.6710    3.8430 hc        1 MOL      0.000330
    163 N14        -7.2990    5.5570    0.3400 n         1 MOL     -0.431879
    164 C55        -7.7810    4.6370   -0.7190 c3        1 MOL     -0.043315
    165 H73        -7.4760    5.0160   -1.6940 h1        1 MOL      0.056830
    166 H74        -7.3520    3.6470   -0.5630 h1        1 MOL      0.056830
    167 H75        -8.8680    4.5730   -0.6770 h1        1 MOL      0.056830
    168 H76        -7.4410    6.5440    0.1440 hn        1 MOL      0.297030
    169 Ca1         8.1600    0.0120   -0.8870 Ca        1 MOL      1.598297
    170 O24        10.3560   -0.2520   -2.4610 oh        1 MOL     -0.789722
    171 H77        10.8240   -1.0710   -2.5640 ho        1 MOL      0.381334
    172 H78        10.7480    0.3400   -3.0970 ho        1 MOL      0.381334
    173 O25         9.4270   -2.4340   -0.6200 oh        1 MOL     -0.789722
    174 H79         9.4520   -3.3910   -0.5710 ho        1 MOL      0.381334
    175 H80        10.2970   -2.1600   -0.3320 ho        1 MOL      0.381334
    176 O26         6.6770   -2.0120   -0.1330 oh        1 MOL     -0.789722
    177 H81         5.7440   -1.8050   -0.1430 ho        1 MOL      0.381334
    178 H82         6.7550   -2.7790   -0.7000 ho        1 MOL      0.381334
    179 O27        10.3700    0.4260    0.5280 oh        1 MOL     -0.789722
    180 H83        10.5020    0.8300    1.3810 ho        1 MOL      0.381334
    181 H84        10.9370   -0.3470    0.5360 ho        1 MOL      0.381334
    182 O28         7.3210   -1.5050   -2.8260 oh        1 MOL     -0.789722
    183 H85         6.4920   -1.6190   -3.2920 ho        1 MOL      0.381334
    184 H86         7.9660   -1.9390   -3.3860 ho        1 MOL      0.381334
@<TRIPOS>BOND
     1    1    2 1   
     2    1    4 1   
     3    1    5 1   
     4    1    6 1   
     5    2    3 2   
     6    2    7 1   
     7    7    8 1   
     8    7   15 1   
     9    8    9 1   
    10    8   11 1   
    11    8   16 1   
    12    9   10 2   
    13    9   19 1   
    14   11   12 1   
    15   11   17 1   
    16   11   18 1   
    17   12   13 1   
    18   12   14 1   
    19   19   20 1   
    20   19   24 1   
    21   20   21 1   
    22   20   23 1   
    23   20   25 1   
    24   21   22 2   
    25   21   29 1   
    26   23   26 1   
    27   23   27 1   
    28   23   28 1   
    29   29   30 1   
    30   29   37 1   
    31   30   31 1   
    32   30   33 1   
    33   30   38 1   
    34   31   32 2   
    35   31   41 1   
    36   33   34 1   
    37   33   39 1   
    38   33   40 1   
    39   34   35 1   
    40   34   36 1   
    41   41   42 1   
    42   41   45 1   
    43   42   43 1   
    44   42   46 1   
    45   42   47 1   
    46   43   44 2   
    47   43   48 1   
    48   48   49 1   
    49   48   56 1   
    50   49   50 1   
    51   49   52 1   
    52   49   57 1   
    53   50   51 2   
    54   50   62 1   
    55   52   53 1   
    56   52   58 1   
    57   52   59 1   
    58   53   54 1   
    59   53   55 2   
    60   54   60 1   
    61   54   61 1   
    62   62   63 1   
    63   62   66 1   
    64   63   64 1   
    65   63   67 1   
    66   63   68 1   
    67   64   65 2   
    68   64   69 1   
    69   69   70 1   
    70   69   76 1   
    71   70   71 1   
    72   70   73 1   
    73   70   77 1   
    74   71   72 2   
    75   71   83 1   
    76   73   74 1   
    77   73   75 1   
    78   73   78 1   
    79   74   80 1   
    80   74   81 1   
    81   74   82 1   
    82   75   79 1   
    83   83   84 1   
    84   83   91 1   
    85   84   85 1   
    86   84   87 1   
    87   84   92 1   
    88   85   86 2   
    89   85  102 1   
    90   87   88 1   
    91   87   89 1   
    92   87   93 1   
    93   88   90 1   
    94   88   94 1   
    95   88   95 1   
    96   89   96 1   
    97   89   97 1   
    98   89   98 1   
    99   90   99 1   
   100   90  100 1   
   101   90  101 1   
   102  102  103 1   
   103  102  110 1   
   104  103  104 1   
   105  103  106 1   
   106  103  111 1   
   107  104  105 2   
   108  104  114 1   
   109  106  107 1   
   110  106  112 1   
   111  106  113 1   
   112  107  108 1   
   113  107  109 1   
   114  114  115 1   
   115  114  125 1   
   116  115  116 1   
   117  115  118 1   
   118  115  126 1   
   119  116  117 2   
   120  116  134 1   
   121  118  119 1   
   122  118  127 1   
   123  118  128 1   
   124  119  120 ar  
   125  119  121 ar  
   126  120  122 ar  
   127  120  129 1   
   128  121  123 ar  
   129  121  130 1   
   130  122  124 ar  
   131  122  131 1   
   132  123  124 ar  
   133  123  132 1   
   134  124  133 1   
   135  134  135 1   
   136  134  140 1   
   137  135  136 1   
   138  135  138 1   
   139  135  141 1   
   140  136  137 2   
   141  136  148 1   
   142  138  139 1   
   143  138  142 1   
   144  138  143 1   
   145  139  140 1   
   146  139  144 1   
   147  139  145 1   
   148  140  146 1   
   149  140  147 1   
   150  148  149 1   
   151  148  157 1   
   152  149  150 1   
   153  149  152 1   
   154  149  158 1   
   155  150  151 2   
   156  150  163 1   
   157  152  153 1   
   158  152  159 1   
   159  152  160 1   
   160  153  154 1   
   161  153  161 1   
   162  153  162 1   
   163  154  155 1   
   164  154  156 1   
   165  163  164 1   
   166  163  168 1   
   167  164  165 1   
   168  164  166 1   
   169  164  167 1   
   170  170  171 1   
   171  170  172 1   
   172  173  174 1   
   173  173  175 1   
   174  176  177 1   
   175  176  178 1   
   176  179  180 1   
   177  179  181 1   
   178  182  183 1   
   179  182  184 1   
@<TRIPOS>SUBSTRUCTURE
     1 MOL         1 TEMP              0 ****  ****    0 ROOT
