@<TRIPOS>MOLECULE
MOL
  181   177     1     0     0
SMALL
resp


@<TRIPOS>ATOM
      1 C1          4.3800    5.7630   -4.2170 c3        1 MOL     -0.357874
      2 C2          4.0860    4.3270   -3.7840 c         1 MOL      0.734161
      3 O1          3.0940    3.7840   -4.1400 o         1 MOL     -0.565684
      4 H1          5.4180    6.0040   -3.9870 hc        1 MOL      0.090412
      5 H2          4.2120    5.8610   -5.2890 hc        1 MOL      0.090412
      6 H3          3.7210    6.4460   -3.6810 hc        1 MOL      0.090412
      7 N1          4.9050    3.6920   -2.9130 n         1 MOL     -0.570119
      8 C3          6.2440    4.1200   -2.3690 c3        1 MOL      0.092653
      9 C4          6.4430    3.9810   -0.8470 c         1 MOL      0.505805
     10 O2          5.8670    3.1300   -0.2580 o         1 MOL     -0.450710
     11 C5          7.4270    3.3440   -3.0070 c3        1 MOL      0.046257
     12 C6          7.3730    1.8250   -3.0660 c         1 MOL      0.657667
     13 O3          8.3590    1.2470   -3.6160 o         1 MOL     -0.705348
     14 O4          6.4330    1.2150   -2.5500 o         1 MOL     -0.705348
     15 H4          4.6370    2.8070   -2.5160 hn        1 MOL      0.238504
     16 H5          6.5100    5.1490   -2.6030 h1        1 MOL      0.002925
     17 H6          8.3400    3.5900   -2.4550 hc        1 MOL     -0.018126
     18 H7          7.5560    3.6880   -4.0300 hc        1 MOL     -0.018126
     19 N2          7.2490    4.8560   -0.2480 n         1 MOL     -0.560605
     20 C7          7.4980    5.2400    1.2030 c3        1 MOL      0.327541
     21 C8          8.0750    4.1030    2.0900 c         1 MOL      0.266356
     22 O5          8.7920    4.3950    3.0630 o         1 MOL     -0.541933
     23 C9          6.2460    5.7440    1.8820 c3        1 MOL     -0.526637
     24 H8          7.7190    5.4980   -0.8700 hn        1 MOL      0.292726
     25 H9          8.2980    5.9820    1.2570 h1        1 MOL      0.032699
     26 H10         5.4390    5.0090    1.9100 hc        1 MOL      0.158789
     27 H11         6.5170    5.9310    2.9210 hc        1 MOL      0.158789
     28 H12         6.0080    6.6700    1.3560 hc        1 MOL      0.158789
     29 N3          7.8670    2.8520    1.7760 n         1 MOL     -0.021515
     30 C10         8.4650    1.7050    2.3540 c3        1 MOL      0.092767
     31 C11         8.6310    0.6620    1.2230 c         1 MOL      0.413042
     32 O6          7.8790    0.6110    0.2050 o         1 MOL     -0.460014
     33 C12         7.5550    1.2260    3.4660 c3        1 MOL     -0.044467
     34 C13         6.0560    1.0300    3.1490 c         1 MOL      0.679824
     35 O7          5.6430    0.9050    2.0010 o         1 MOL     -0.673069
     36 O8          5.1960    1.1280    4.0330 o         1 MOL     -0.673069
     37 H13         7.4080    2.7090    0.8860 hn        1 MOL      0.039600
     38 H14         9.4480    1.9970    2.7300 h1        1 MOL      0.017023
     39 H15         7.8010    1.9010    4.2800 hc        1 MOL     -0.019372
     40 H16         7.9890    0.2940    3.8460 hc        1 MOL     -0.019372
     41 N4          9.6790   -0.1920    1.4460 n         1 MOL     -0.421122
     42 C14        10.0910   -1.2610    0.5250 c3        1 MOL     -0.225671
     43 C15         8.9640   -2.3510    0.3690 c         1 MOL      0.488697
     44 O9          8.8400   -2.8760   -0.7370 o         1 MOL     -0.553636
     45 H17        10.1450   -0.1190    2.3470 hn        1 MOL      0.296684
     46 H18        10.9780   -1.6930    0.9820 h1        1 MOL      0.169832
     47 H19        10.4430   -0.9190   -0.4430 h1        1 MOL      0.169832
     48 N5          8.1680   -2.6480    1.3990 n         1 MOL     -0.412457
     49 C16         7.1530   -3.6650    1.4740 c3        1 MOL      0.234075
     50 C17         5.8730   -3.3130    0.6480 c         1 MOL      0.314649
     51 O10         5.5150   -2.1610    0.5750 o         1 MOL     -0.539970
     52 C18         6.8570   -4.1640    2.9520 c3        1 MOL     -0.487160
     53 C19         6.0010   -3.1840    3.8140 c         1 MOL      0.708209
     54 N6          6.6370   -2.5240    4.8450 n         1 MOL     -0.822887
     55 O11         4.8090   -2.9920    3.5940 o         1 MOL     -0.470822
     56 H20         8.5210   -2.2130    2.2310 hn        1 MOL      0.267336
     57 H21         7.6270   -4.5280    0.9930 h1        1 MOL      0.069509
     58 H22         7.7330   -4.3700    3.5710 hc        1 MOL      0.143341
     59 H23         6.2730   -5.0830    2.8490 hc        1 MOL      0.143341
     60 H24         7.6350   -2.4640    4.9540 hn        1 MOL      0.368311
     61 H25         6.0680   -1.8840    5.3810 hn        1 MOL      0.368311
     62 N7          5.1230   -4.3330    0.2210 n         1 MOL     -0.321711
     63 C20         3.9190   -4.0730   -0.5180 c3        1 MOL     -0.014271
     64 C21         2.9780   -5.2960   -0.5730 c         1 MOL      0.563715
     65 O12         3.2990   -6.4310   -0.0790 o         1 MOL     -0.574740
     66 H26         5.5590   -5.2350    0.3500 hn        1 MOL      0.257965
     67 H27         4.0980   -3.7000   -1.5330 h1        1 MOL      0.127632
     68 H28         3.3780   -3.3860    0.1240 h1        1 MOL      0.127632
     69 N8          1.7980   -5.1330   -1.1070 n         1 MOL     -0.544632
     70 C22         1.1870   -3.9180   -1.6440 c3        1 MOL      0.201751
     71 C23        -0.0500   -3.4810   -0.7610 c         1 MOL      0.449018
     72 O13        -0.4290   -4.2400    0.0890 o         1 MOL     -0.518496
     73 C24         0.5860   -4.1570   -2.9870 c3        1 MOL      0.319811
     74 C25         1.7000   -4.2880   -4.0600 c3        1 MOL     -0.261952
     75 O14        -0.3580   -5.1670   -3.1210 oh        1 MOL     -0.523961
     76 H29         1.1710   -5.9020   -0.9230 hn        1 MOL      0.324004
     77 H30         1.9800   -3.1780   -1.5390 h1        1 MOL     -0.119999
     78 H31         0.0180   -3.2700   -3.2570 h1        1 MOL      0.100347
     79 H32         0.1150   -6.0000   -2.9770 ho        1 MOL      0.362102
     80 H33         1.3190   -4.8120   -4.9370 hc        1 MOL      0.036137
     81 H34         2.1250   -3.3260   -4.3590 hc        1 MOL      0.036137
     82 H35         2.5250   -4.8780   -3.6720 hc        1 MOL      0.036137
     83 N9         -0.6670   -2.3270   -0.9430 n         1 MOL     -0.303610
     84 C26        -1.9410   -1.7690   -0.3850 c3        1 MOL     -0.065090
     85 C27        -2.8020   -1.2450   -1.5380 c         1 MOL      0.538550
     86 O15        -2.2980   -0.7120   -2.5110 o         1 MOL     -0.598807
     87 C28        -1.5400   -0.6890    0.6010 c3        1 MOL     -0.080285
     88 C29        -0.5950    0.4510    0.1150 c3        1 MOL      0.122993
     89 C30        -1.0870   -1.4090    1.8940 c3        1 MOL     -0.417559
     90 C31        -0.4820    1.7030    1.0200 c3        1 MOL     -0.135694
     91 H36        -0.3630   -1.8780   -1.7970 hn        1 MOL      0.150015
     92 H37        -2.4660   -2.5400    0.1810 h1        1 MOL      0.186892
     93 H38        -2.4730   -0.2120    0.9020 hc        1 MOL      0.103639
     94 H39        -0.8120    0.8230   -0.8870 hc        1 MOL     -0.017706
     95 H40         0.3990    0.0040    0.1320 hc        1 MOL     -0.017706
     96 H41        -0.9550   -0.6940    2.7020 hc        1 MOL      0.122331
     97 H42        -1.9070   -1.9380    2.3680 hc        1 MOL      0.122331
     98 H43        -0.2170   -2.0610    1.7450 hc        1 MOL      0.122331
     99 H44         0.3150    2.3010    0.5820 hc        1 MOL      0.025978
    100 H45        -1.4360    2.2290    1.0410 hc        1 MOL      0.025978
    101 H46        -0.2190    1.4210    2.0410 hc        1 MOL      0.025978
    102 N10        -4.0990   -1.1510   -1.5120 n         1 MOL     -0.280563
    103 C32        -4.9440   -1.7680   -0.4670 c3        1 MOL     -0.038889
    104 C33        -6.3970   -1.2790   -0.6280 c         1 MOL      0.525239
    105 O16        -6.8840   -0.9960   -1.7040 o         1 MOL     -0.514114
    106 C34        -4.9160   -3.3070   -0.5200 c3        1 MOL     -0.071964
    107 C35        -4.8390   -3.9120   -1.9400 c         1 MOL      0.628828
    108 O17        -5.9000   -4.0950   -2.5830 o         1 MOL     -0.698431
    109 O18        -3.7060   -4.2120   -2.4210 o         1 MOL     -0.698431
    110 H47        -4.4950   -0.5300   -2.1960 hn        1 MOL      0.272922
    111 H48        -4.6200   -1.4180    0.5110 h1        1 MOL      0.034542
    112 H49        -5.7560   -3.7480    0.0140 hc        1 MOL     -0.010937
    113 H50        -4.0520   -3.6820    0.0370 hc        1 MOL     -0.010937
    114 N11        -7.0970   -1.1980    0.5000 n         1 MOL     -0.557101
    115 C36        -8.4400   -0.7250    0.5760 c3        1 MOL      0.553740
    116 C37        -8.8710   -0.2530    2.0090 c         1 MOL     -0.058806
    117 O19        -8.6400   -1.0320    2.9280 o         1 MOL     -0.489319
    118 C38        -9.3370   -1.9050    0.1460 c3        1 MOL     -0.253831
    119 C39       -10.8460   -1.6900    0.1160 ca        1 MOL      0.028811
    120 C40       -11.6150   -1.8610    1.2850 ca        1 MOL     -0.069636
    121 C41       -11.4970   -1.4230   -1.1010 ca        1 MOL     -0.069636
    122 C42       -13.0140   -1.6370    1.3030 ca        1 MOL     -0.205257
    123 C43       -12.8640   -1.1870   -1.1460 ca        1 MOL     -0.205257
    124 C44       -13.5390   -1.2000    0.0930 ca        1 MOL     -0.074401
    125 H51        -6.6810   -1.4450    1.3830 hn        1 MOL      0.339925
    126 H52        -8.6020    0.0590   -0.1720 h1        1 MOL     -0.093027
    127 H53        -9.0620   -2.7930    0.7180 hc        1 MOL      0.097979
    128 H54        -9.0990   -2.1010   -0.8990 hc        1 MOL      0.097979
    129 H55       -11.0950   -2.1780    2.1710 ha        1 MOL      0.115785
    130 H56       -10.9570   -1.3610   -2.0360 ha        1 MOL      0.115785
    131 H57       -13.6360   -1.5470    2.1720 ha        1 MOL      0.129760
    132 H58       -13.2350   -0.9870   -2.1320 ha        1 MOL      0.129760
    133 H59       -14.5430   -0.8050    0.1340 ha        1 MOL      0.064922
    134 N12        -9.4680    0.9090    2.2040 n         1 MOL      0.406924
    135 C45       -10.1590    1.6030    1.0830 c3        1 MOL      0.167867
    136 C46        -9.1540    2.3990    0.1000 c         1 MOL      0.426088
    137 O20        -9.5480    2.4840   -1.0360 o         1 MOL     -0.570108
    138 C47       -11.3230    2.3610    1.6320 c3        1 MOL     -0.103291
    139 C48       -11.0980    2.3450    3.1140 c3        1 MOL     -0.142560
    140 C49       -10.0720    1.3070    3.4600 c3        1 MOL     -0.222011
    141 H60       -10.6560    0.7770    0.5700 h1        1 MOL     -0.024599
    142 H61       -11.4260    3.4020    1.3040 hc        1 MOL      0.036509
    143 H62       -12.2590    1.8650    1.3920 hc        1 MOL      0.036509
    144 H63       -10.5630    3.2470    3.4210 hc        1 MOL      0.053251
    145 H64       -12.0090    2.1130    3.6730 hc        1 MOL      0.053251
    146 H65        -9.4050    1.7870    4.1790 h1        1 MOL      0.077974
    147 H66       -10.6270    0.4050    3.7380 h1        1 MOL      0.077974
    148 N13        -8.0170    2.8890    0.5560 n         1 MOL     -0.165109
    149 C50        -6.9790    3.4210   -0.3100 c3        1 MOL     -0.034369
    150 C51        -7.2730    4.9060   -0.7820 c         1 MOL      0.397798
    151 O21        -7.2970    5.7900    0.0530 o         1 MOL     -0.577391
    152 C52        -5.6100    3.3970    0.2930 c3        1 MOL     -0.258147
    153 C53        -4.9530    2.0790    0.5990 c3        1 MOL      0.049488
    154 C54        -5.5340    1.4260    1.8590 c         1 MOL      0.681120
    155 O22        -6.3340    1.9790    2.6090 o         1 MOL     -0.682351
    156 O23        -4.9310    0.3680    2.1770 o         1 MOL     -0.682351
    157 H67        -7.8490    2.8480    1.5520 hn        1 MOL      0.169482
    158 H68        -6.8790    2.8100   -1.2050 h1        1 MOL      0.124202
    159 H69        -5.5710    3.9270    1.2440 hc        1 MOL      0.089454
    160 H70        -4.8280    3.9470   -0.2250 hc        1 MOL      0.089454
    161 H71        -3.8990    2.2670    0.7960 hc        1 MOL     -0.025545
    162 H72        -5.0300    1.4370   -0.2730 hc        1 MOL     -0.025545
    163 N14        -7.5830    5.3240   -1.9730 n         1 MOL     -0.283284
    164 C55        -7.8790    4.4080   -3.1090 c3        1 MOL     -0.054684
    165 H73        -8.7420    4.7810   -3.6600 h1        1 MOL      0.046379
    166 H74        -7.0160    4.3630   -3.7740 h1        1 MOL      0.046379
    167 H75        -8.0970    3.4120   -2.7260 h1        1 MOL      0.046379
    168 H76        -7.6900    6.3000   -2.1670 hn        1 MOL      0.255639
    169 Ca1         5.3540    0.3460   -0.5470 Ca        1 MOL      1.765871
    170 O24         6.8780   -1.6800   -1.7770 oh        1 MOL     -0.837878
    171 H77         7.0290   -1.5690   -2.7150 ho        1 MOL      0.416509
    172 H78         7.6180   -2.2170   -1.4800 ho        1 MOL      0.416509
    173 O25         3.2110    2.2920   -0.3550 oh        1 MOL     -0.837878
    174 H79         3.4900    3.2050   -0.4100 ho        1 MOL      0.416509
    175 H80         2.6030    2.1830   -1.0840 ho        1 MOL      0.416509
    176 O26         4.1250   -0.7540   -2.5770 oh        1 MOL     -0.837878
    177 H81         3.2100   -0.7000   -2.8340 ho        1 MOL      0.416509
    178 H82         4.4660   -1.5190   -3.0360 ho        1 MOL      0.416509
    179 O27         2.9900   -0.3320    0.6440 oh        1 MOL     -0.837878
    180 H83         2.7610   -0.9850    1.3050 ho        1 MOL      0.416509
    181 H84         2.4040    0.4000    0.8280 ho        1 MOL      0.416509
@<TRIPOS>BOND
     1    1    2 1   
     2    1    4 1   
     3    1    5 1   
     4    1    6 1   
     5    2    3 2   
     6    2    7 1   
     7    7    8 1   
     8    7   15 1   
     9    8    9 1   
    10    8   11 1   
    11    8   16 1   
    12    9   10 2   
    13    9   19 1   
    14   11   12 1   
    15   11   17 1   
    16   11   18 1   
    17   12   13 1   
    18   12   14 1   
    19   19   20 1   
    20   19   24 1   
    21   20   21 1   
    22   20   23 1   
    23   20   25 1   
    24   21   22 2   
    25   21   29 1   
    26   23   26 1   
    27   23   27 1   
    28   23   28 1   
    29   29   30 1   
    30   29   37 1   
    31   30   31 1   
    32   30   33 1   
    33   30   38 1   
    34   31   32 2   
    35   31   41 1   
    36   33   34 1   
    37   33   39 1   
    38   33   40 1   
    39   34   35 1   
    40   34   36 1   
    41   41   42 1   
    42   41   45 1   
    43   42   43 1   
    44   42   46 1   
    45   42   47 1   
    46   43   44 2   
    47   43   48 1   
    48   48   49 1   
    49   48   56 1   
    50   49   50 1   
    51   49   52 1   
    52   49   57 1   
    53   50   51 2   
    54   50   62 1   
    55   52   53 1   
    56   52   58 1   
    57   52   59 1   
    58   53   54 1   
    59   53   55 2   
    60   54   60 1   
    61   54   61 1   
    62   62   63 1   
    63   62   66 1   
    64   63   64 1   
    65   63   67 1   
    66   63   68 1   
    67   64   65 2   
    68   64   69 1   
    69   69   70 1   
    70   69   76 1   
    71   70   71 1   
    72   70   73 1   
    73   70   77 1   
    74   71   72 2   
    75   71   83 1   
    76   73   74 1   
    77   73   75 1   
    78   73   78 1   
    79   74   80 1   
    80   74   81 1   
    81   74   82 1   
    82   75   79 1   
    83   83   84 1   
    84   83   91 1   
    85   84   85 1   
    86   84   87 1   
    87   84   92 1   
    88   85   86 2   
    89   85  102 1   
    90   87   88 1   
    91   87   89 1   
    92   87   93 1   
    93   88   90 1   
    94   88   94 1   
    95   88   95 1   
    96   89   96 1   
    97   89   97 1   
    98   89   98 1   
    99   90   99 1   
   100   90  100 1   
   101   90  101 1   
   102  102  103 1   
   103  102  110 1   
   104  103  104 1   
   105  103  106 1   
   106  103  111 1   
   107  104  105 2   
   108  104  114 1   
   109  106  107 1   
   110  106  112 1   
   111  106  113 1   
   112  107  108 1   
   113  107  109 1   
   114  114  115 1   
   115  114  125 1   
   116  115  116 1   
   117  115  118 1   
   118  115  126 1   
   119  116  117 2   
   120  116  134 1   
   121  118  119 1   
   122  118  127 1   
   123  118  128 1   
   124  119  120 ar  
   125  119  121 ar  
   126  120  122 ar  
   127  120  129 1   
   128  121  123 ar  
   129  121  130 1   
   130  122  124 ar  
   131  122  131 1   
   132  123  124 ar  
   133  123  132 1   
   134  124  133 1   
   135  134  135 1   
   136  134  140 1   
   137  135  136 1   
   138  135  138 1   
   139  135  141 1   
   140  136  137 2   
   141  136  148 1   
   142  138  139 1   
   143  138  142 1   
   144  138  143 1   
   145  139  140 1   
   146  139  144 1   
   147  139  145 1   
   148  140  146 1   
   149  140  147 1   
   150  148  149 1   
   151  148  157 1   
   152  149  150 1   
   153  149  152 1   
   154  149  158 1   
   155  150  151 2   
   156  150  163 1   
   157  152  153 1   
   158  152  159 1   
   159  152  160 1   
   160  153  154 1   
   161  153  161 1   
   162  153  162 1   
   163  154  155 1   
   164  154  156 1   
   165  163  164 1   
   166  163  168 1   
   167  164  165 1   
   168  164  166 1   
   169  164  167 1   
   170  170  171 1   
   171  170  172 1   
   172  173  174 1   
   173  173  175 1   
   174  176  177 1   
   175  176  178 1   
   176  179  180 1   
   177  179  181 1   
@<TRIPOS>SUBSTRUCTURE
     1 MOL         1 TEMP              0 ****  ****    0 ROOT
