@<TRIPOS>MOLECULE
MOL
  189   185     1     0     0
SMALL
resp


@<TRIPOS>ATOM
      1 C1         -5.8980   -5.2380   -2.2120 c3        1 MOL     -0.371720
      2 C2         -6.0710   -3.8660   -1.6060 c         1 MOL      0.651263
      3 O1         -5.0490   -3.3440   -1.0830 o         1 MOL     -0.631281
      4 H1         -4.9080   -5.3140   -2.6600 hc        1 MOL      0.102913
      5 H2         -6.0040   -5.9950   -1.4350 hc        1 MOL      0.102913
      6 H3         -6.6560   -5.3950   -2.9790 hc        1 MOL      0.102913
      7 N1         -7.2520   -3.2140   -1.7250 n         1 MOL     -0.650288
      8 C3         -7.6600   -1.9310   -1.1650 c3        1 MOL      0.068769
      9 C4         -6.4640   -0.9030   -1.2200 c         1 MOL      0.358364
     10 O2         -5.8450   -0.5340   -0.2480 o         1 MOL     -0.538609
     11 C5         -8.3620   -2.1910    0.1670 c3        1 MOL      0.052462
     12 C6         -7.7990   -3.2560    1.1010 c         1 MOL      0.699986
     13 O3         -6.5900   -3.3870    1.2100 o         1 MOL     -0.720781
     14 O4         -8.6240   -3.8770    1.7980 o         1 MOL     -0.720781
     15 H4         -7.9580   -3.7510   -2.2090 hn        1 MOL      0.351046
     16 H5         -8.3700   -1.3940   -1.8100 h1        1 MOL      0.056392
     17 H6         -9.3710   -2.5740   -0.0230 hc        1 MOL     -0.019578
     18 H7         -8.3340   -1.2750    0.7570 hc        1 MOL     -0.019578
     19 N2         -6.1230   -0.5540   -2.4460 n         1 MOL     -0.222064
     20 C7         -5.2210    0.5480   -2.8400 c3        1 MOL     -0.110760
     21 C8         -5.6060    1.9310   -2.3290 c         1 MOL      0.424307
     22 O5         -5.7270    2.8340   -3.1460 o         1 MOL     -0.527496
     23 C9         -3.6930    0.2540   -2.6070 c3        1 MOL      0.115187
     24 C10        -2.7720    1.2920   -3.2910 c3        1 MOL     -0.034368
     25 C11        -3.3250   -1.1970   -3.0260 c3        1 MOL     -0.196869
     26 C12        -2.8130    1.2150   -4.8300 c3        1 MOL     -0.178497
     27 H8         -6.5480   -1.0710   -3.2060 hn        1 MOL      0.244968
     28 H9         -5.2480    0.5100   -3.9300 h1        1 MOL      0.081923
     29 H10        -3.4170    0.3700   -1.5590 hc        1 MOL     -0.118095
     30 H11        -1.7420    1.0360   -3.0370 hc        1 MOL      0.085916
     31 H12        -2.9580    2.2870   -2.8990 hc        1 MOL      0.085916
     32 H13        -3.8630   -1.5170   -3.9140 hc        1 MOL      0.059873
     33 H14        -2.2460   -1.3420   -3.1380 hc        1 MOL      0.059873
     34 H15        -3.5680   -1.8630   -2.2040 hc        1 MOL      0.059873
     35 H16        -3.6260    1.8270   -5.2460 hc        1 MOL      0.025991
     36 H17        -1.9720    1.7190   -5.3050 hc        1 MOL      0.025991
     37 H18        -2.9430    0.1800   -5.1630 hc        1 MOL      0.025991
     38 N3         -5.8100    2.1390   -0.9540 n         1 MOL     -0.223447
     39 C13        -6.4170    3.3050   -0.3530 c3        1 MOL      0.039568
     40 C14        -5.6020    4.6360   -0.4270 c         1 MOL      0.487530
     41 O6         -6.2560    5.6580   -0.5960 o         1 MOL     -0.591400
     42 C15        -6.8400    3.0320    1.1430 c3        1 MOL     -0.129512
     43 C16        -7.7640    1.8330    1.3080 c         1 MOL      0.681246
     44 O7         -8.3540    1.3670    0.2920 o         1 MOL     -0.680385
     45 O8         -8.0830    1.5740    2.5130 o         1 MOL     -0.680385
     46 H19        -5.7360    1.3250   -0.3550 hn        1 MOL      0.267776
     47 H20        -7.3580    3.4820   -0.8710 h1        1 MOL      0.058407
     48 H21        -7.2390    3.9300    1.6220 hc        1 MOL      0.043537
     49 H22        -5.9380    2.8680    1.7300 hc        1 MOL      0.043537
     50 N4         -4.3100    4.7020   -0.2280 n         1 MOL     -0.456638
     51 C17        -3.3840    3.7580    0.3810 c3        1 MOL      0.308287
     52 C18        -2.3480    4.3850    1.2630 c         1 MOL      0.387952
     53 O9         -1.9760    5.5570    1.0580 o         1 MOL     -0.572131
     54 H23        -3.8930    5.6240   -0.2910 hn        1 MOL      0.274240
     55 H24        -2.6980    3.3900   -0.3820 h1        1 MOL     -0.014066
     56 H25        -3.9580    2.9690    0.8690 h1        1 MOL     -0.014066
     57 N5         -1.8360    3.6020    2.2790 n         1 MOL     -0.313274
     58 C19        -2.2090    2.1980    2.7520 c3        1 MOL      0.080396
     59 C20        -2.3320    1.0800    1.6730 c         1 MOL     -0.069025
     60 O10        -3.4790    0.6680    1.3770 o         1 MOL     -0.348171
     61 C21        -3.4440    2.2320    3.6130 c3        1 MOL     -0.206096
     62 C22        -3.5590    0.9090    4.3640 c         1 MOL      0.763995
     63 O11        -4.6540    0.5570    4.8130 o         1 MOL     -0.693422
     64 O12        -2.5440    0.2280    4.6880 o         1 MOL     -0.693422
     65 H26        -1.2200    4.1570    2.8610 hn        1 MOL      0.237876
     66 H27        -1.3370    1.9240    3.3390 h1        1 MOL      0.056623
     67 H28        -4.3390    2.3690    3.0020 hc        1 MOL      0.046532
     68 H29        -3.3040    3.0770    4.2940 hc        1 MOL      0.046532
     69 N6         -1.2280    0.7230    0.9790 n         1 MOL      0.066043
     70 C23         0.1160    1.2590    1.0270 c3        1 MOL     -0.011861
     71 C24         0.3530    2.5230    0.1660 c         1 MOL      0.518563
     72 O13        -0.2870    2.7370   -0.8370 o         1 MOL     -0.465727
     73 H30        -1.3730   -0.0380    0.3380 hn        1 MOL      0.077040
     74 H31         0.8470    0.5020    0.7130 h1        1 MOL      0.011156
     75 H32         0.3900    1.4780    2.0580 h1        1 MOL      0.011156
     76 N7          1.3830    3.2900    0.5840 n         1 MOL     -0.557502
     77 C25         1.7400    4.5130   -0.1440 c3        1 MOL      0.077330
     78 C26         2.3900    4.2640   -1.4970 c         1 MOL      0.270368
     79 O14         2.4490    5.1930   -2.2940 o         1 MOL     -0.523017
     80 C27         2.6360    5.3200    0.7120 c3        1 MOL      0.143528
     81 C28         1.8490    6.0060    1.8650 c3        1 MOL     -0.469605
     82 C29         2.7900    6.5640    2.8630 c         1 MOL      0.775469
     83 N8          2.4400    7.3910    3.8320 n         1 MOL     -0.860783
     84 O15         4.0260    6.3440    2.7720 o         1 MOL     -0.572268
     85 H33         1.7010    3.1280    1.5290 hn        1 MOL      0.334326
     86 H34         0.9240    5.2010   -0.3640 h1        1 MOL      0.131913
     87 H35         3.0290    6.1260    0.0980 hc        1 MOL      0.018399
     88 H36         3.3720    4.6010    1.0690 hc        1 MOL      0.018399
     89 H37         1.2270    5.2680    2.3890 hc        1 MOL      0.130123
     90 H38         1.2770    6.7910    1.3770 hc        1 MOL      0.130123
     91 H39         1.4420    7.4580    4.0150 hn        1 MOL      0.371695
     92 H40         3.1100    8.0370    4.2100 hn        1 MOL      0.371695
     93 N9          2.7990    3.1020   -1.7890 n         1 MOL     -0.050870
     94 C30         3.3050    2.6570   -3.1610 c3        1 MOL     -0.149243
     95 C31         4.6290    1.9670   -3.1960 c         1 MOL      0.623313
     96 O16         5.3200    2.0580   -4.2270 o         1 MOL     -0.573331
     97 C32         2.2400    1.7200   -3.8380 c3        1 MOL      0.091604
     98 C33         0.9400    2.4420   -4.2530 c3        1 MOL     -0.154807
     99 C34         1.8590    0.4290   -3.1240 c3        1 MOL     -0.154807
    100 H41         2.8410    2.4360   -1.0300 hn        1 MOL      0.176154
    101 H42         3.4980    3.5760   -3.7240 h1        1 MOL      0.117673
    102 H43         2.7180    1.3720   -4.7600 hc        1 MOL      0.008707
    103 H44         0.4090    2.6360   -3.3300 hc        1 MOL      0.041801
    104 H45         1.1280    3.4000   -4.7360 hc        1 MOL      0.041801
    105 H46         0.3290    1.7920   -4.8810 hc        1 MOL      0.041801
    106 H47         1.2190   -0.1830   -3.7610 hc        1 MOL      0.041801
    107 H48         2.7910   -0.0690   -2.8390 hc        1 MOL      0.041801
    108 H49         1.2350    0.5710   -2.2420 hc        1 MOL      0.041801
    109 N10         5.1260    1.4240   -2.0830 n         1 MOL     -0.467520
    110 C35         6.5480    1.1310   -1.9070 c3        1 MOL     -0.010239
    111 C36         6.7830   -0.2520   -1.2660 c         1 MOL      0.661367
    112 O17         7.8270   -0.8250   -1.4340 o         1 MOL     -0.576135
    113 C37         7.2220    2.2650   -1.1380 c3        1 MOL     -0.309895
    114 C38         6.8560    3.6960   -1.4040 c         1 MOL      0.718892
    115 N11         7.2520    4.2810   -2.5490 n         1 MOL     -0.849903
    116 O18         6.2500    4.2870   -0.4990 o         1 MOL     -0.572717
    117 H50         4.4610    1.2530   -1.3440 hn        1 MOL      0.244324
    118 H51         6.9830    1.0900   -2.9040 h1        1 MOL      0.091274
    119 H52         8.2920    2.1250   -1.2690 hc        1 MOL      0.114487
    120 H53         7.0480    2.1270   -0.0740 hc        1 MOL      0.114487
    121 H54         7.8070    3.7370   -3.2030 hn        1 MOL      0.390774
    122 H55         6.6850    5.0560   -2.8530 hn        1 MOL      0.390774
    123 N12         5.9180   -0.7080   -0.3580 n         1 MOL     -0.588855
    124 C39         6.1100   -1.9030    0.4320 c3        1 MOL      0.355400
    125 C40         4.7610   -2.5560    0.6290 c         1 MOL      0.308525
    126 O19         3.6770   -1.9710    0.4240 o         1 MOL     -0.465292
    127 C41         6.7870   -1.5670    1.7590 c3        1 MOL     -0.034841
    128 C42         8.1920   -1.0920    1.6690 ca        1 MOL     -0.082220
    129 C43         9.1710   -2.0110    1.3310 ca        1 MOL     -0.051260
    130 C44         8.5040    0.2810    1.7370 ca        1 MOL     -0.051260
    131 C45        10.5130   -1.5560    1.2840 ca        1 MOL     -0.285474
    132 C46         9.8370    0.6920    1.5750 ca        1 MOL     -0.285474
    133 C47        10.8640   -0.1820    1.3260 ca        1 MOL      0.354848
    134 O20        12.1770    0.2140    1.4720 oh        1 MOL     -0.510272
    135 H56         5.2340   -0.0130   -0.1020 hn        1 MOL      0.287532
    136 H57         6.7570   -2.5870   -0.1190 h1        1 MOL      0.039201
    137 H58         6.8030   -2.4510    2.3980 hc        1 MOL      0.053861
    138 H59         6.2970   -0.7650    2.3170 hc        1 MOL      0.053861
    139 H60         8.9290   -3.0570    1.2680 ha        1 MOL      0.105843
    140 H61         7.7170    0.9880    1.9710 ha        1 MOL      0.105843
    141 H62        11.3320   -2.2630    1.2600 ha        1 MOL      0.128890
    142 H63        10.0510    1.7350    1.7840 ha        1 MOL      0.128890
    143 H64        12.7430   -0.5570    1.5340 ho        1 MOL      0.357986
    144 N13         4.7040   -3.8770    0.9380 n         1 MOL     -0.544696
    145 C48         3.5650   -4.7600    1.1640 c3        1 MOL      0.129375
    146 C49         2.6510   -5.0390    0.0100 c         1 MOL      0.484674
    147 O21         2.2610   -6.1420   -0.1160 o         1 MOL     -0.504766
    148 C50         2.8560   -4.3760    2.4870 c3        1 MOL     -0.041327
    149 C51         3.6400   -3.9200    3.6990 c3        1 MOL      0.002628
    150 C52         4.4720   -5.0310    4.2490 c         1 MOL      0.693082
    151 O22         4.7980   -4.9740    5.4160 o         1 MOL     -0.724761
    152 O23         4.9920   -5.9130    3.4780 o         1 MOL     -0.724761
    153 H65         5.6170   -4.3030    0.9920 hn        1 MOL      0.306660
    154 H66         3.9630   -5.7290    1.4450 h1        1 MOL      0.030729
    155 H67         2.1610   -5.1480    2.8120 hc        1 MOL      0.022630
    156 H68         2.2310   -3.5700    2.1200 hc        1 MOL      0.022630
    157 H69         2.9540   -3.6660    4.5080 hc        1 MOL     -0.025995
    158 H70         4.1950   -3.0110    3.4540 hc        1 MOL     -0.025995
    159 N14         2.2820   -4.0670   -0.8090 n         1 MOL     -0.307631
    160 C53         1.1870   -4.2170   -1.7430 c3        1 MOL     -0.172365
    161 C54         1.6210   -5.0980   -2.9380 c         1 MOL      0.593381
    162 O24         0.8890   -5.9960   -3.3840 o         1 MOL     -0.548823
    163 C55         0.5750   -2.9040   -2.1260 c3        1 MOL     -0.074247
    164 C56        -0.0180   -2.1520   -0.9090 c3        1 MOL      0.393433
    165 C57        -1.2890   -2.7330   -0.2830 c         1 MOL      0.434584
    166 O25        -2.2680   -1.9800   -0.1450 o         1 MOL     -0.542827
    167 O26        -1.3040   -3.8570    0.1640 o         1 MOL     -0.542827
    168 H71         2.5750   -3.1250   -0.5710 hn        1 MOL      0.235235
    169 H72         0.4190   -4.8660   -1.3250 h1        1 MOL      0.113199
    170 H73        -0.0920   -3.0370   -2.9830 hc        1 MOL     -0.002222
    171 H74         1.2750   -2.2060   -2.5690 hc        1 MOL     -0.002222
    172 H75        -0.2530   -1.1500   -1.2590 hc        1 MOL     -0.113121
    173 H76         0.7320   -2.0090   -0.1260 hc        1 MOL     -0.113121
    174 N15         2.8020   -4.8080   -3.5080 n         1 MOL     -0.361916
    175 C58         3.5200   -5.6900   -4.4390 c3        1 MOL     -0.276617
    176 H77         4.3570   -5.1480   -4.8790 h1        1 MOL      0.117356
    177 H78         3.8940   -6.5600   -3.9000 h1        1 MOL      0.117356
    178 H79         2.8420   -6.0130   -5.2280 h1        1 MOL      0.117356
    179 H80         3.3220   -4.0990   -3.0010 hn        1 MOL      0.256074
    180 Ca1        -4.4690   -2.0020    1.1970 Ca        1 MOL      1.781054
    181 O27        -4.0750   -4.6740    1.4290 oh        1 MOL     -0.878772
    182 H81        -4.9900   -4.9420    1.5100 ho        1 MOL      0.411166
    183 H82        -3.6750   -5.3470    0.8740 ho        1 MOL      0.411166
    184 O28        -2.7340   -1.9070    3.0820 oh        1 MOL     -0.878772
    185 H83        -1.8360   -2.2330    3.1500 ho        1 MOL      0.411166
    186 H84        -2.7610   -1.1440    3.6590 ho        1 MOL      0.411166
    187 O29        -6.2190   -0.6770    2.8090 oh        1 MOL     -0.878772
    188 H85        -6.8740    0.0150    2.6690 ho        1 MOL      0.411166
    189 H86        -6.1400   -0.7290    3.7670 ho        1 MOL      0.411166
@<TRIPOS>BOND
     1    1    2 1   
     2    1    4 1   
     3    1    5 1   
     4    1    6 1   
     5    2    3 2   
     6    2    7 1   
     7    7    8 1   
     8    7   15 1   
     9    8    9 1   
    10    8   11 1   
    11    8   16 1   
    12    9   10 2   
    13    9   19 1   
    14   11   12 1   
    15   11   17 1   
    16   11   18 1   
    17   12   13 1   
    18   12   14 1   
    19   19   20 1   
    20   19   27 1   
    21   20   21 1   
    22   20   23 1   
    23   20   28 1   
    24   21   22 2   
    25   21   38 1   
    26   23   24 1   
    27   23   25 1   
    28   23   29 1   
    29   24   26 1   
    30   24   30 1   
    31   24   31 1   
    32   25   32 1   
    33   25   33 1   
    34   25   34 1   
    35   26   35 1   
    36   26   36 1   
    37   26   37 1   
    38   38   39 1   
    39   38   46 1   
    40   39   40 1   
    41   39   42 1   
    42   39   47 1   
    43   40   41 2   
    44   40   50 1   
    45   42   43 1   
    46   42   48 1   
    47   42   49 1   
    48   43   44 1   
    49   43   45 1   
    50   50   51 1   
    51   50   54 1   
    52   51   52 1   
    53   51   55 1   
    54   51   56 1   
    55   52   53 2   
    56   52   57 1   
    57   57   58 1   
    58   57   65 1   
    59   58   59 1   
    60   58   61 1   
    61   58   66 1   
    62   59   60 2   
    63   59   69 1   
    64   61   62 1   
    65   61   67 1   
    66   61   68 1   
    67   62   63 1   
    68   62   64 1   
    69   69   70 1   
    70   69   73 1   
    71   70   71 1   
    72   70   74 1   
    73   70   75 1   
    74   71   72 2   
    75   71   76 1   
    76   76   77 1   
    77   76   85 1   
    78   77   78 1   
    79   77   80 1   
    80   77   86 1   
    81   78   79 2   
    82   78   93 1   
    83   80   81 1   
    84   80   87 1   
    85   80   88 1   
    86   81   82 1   
    87   81   89 1   
    88   81   90 1   
    89   82   83 1   
    90   82   84 2   
    91   83   91 1   
    92   83   92 1   
    93   93   94 1   
    94   93  100 1   
    95   94   95 1   
    96   94   97 1   
    97   94  101 1   
    98   95   96 2   
    99   95  109 1   
   100   97   98 1   
   101   97   99 1   
   102   97  102 1   
   103   98  103 1   
   104   98  104 1   
   105   98  105 1   
   106   99  106 1   
   107   99  107 1   
   108   99  108 1   
   109  109  110 1   
   110  109  117 1   
   111  110  111 1   
   112  110  113 1   
   113  110  118 1   
   114  111  112 2   
   115  111  123 1   
   116  113  114 1   
   117  113  119 1   
   118  113  120 1   
   119  114  115 1   
   120  114  116 2   
   121  115  121 1   
   122  115  122 1   
   123  123  124 1   
   124  123  135 1   
   125  124  125 1   
   126  124  127 1   
   127  124  136 1   
   128  125  126 2   
   129  125  144 1   
   130  127  128 1   
   131  127  137 1   
   132  127  138 1   
   133  128  129 ar  
   134  128  130 ar  
   135  129  131 ar  
   136  129  139 1   
   137  130  132 ar  
   138  130  140 1   
   139  131  133 ar  
   140  131  141 1   
   141  132  133 ar  
   142  132  142 1   
   143  133  134 1   
   144  134  143 1   
   145  144  145 1   
   146  144  153 1   
   147  145  146 1   
   148  145  148 1   
   149  145  154 1   
   150  146  147 2   
   151  146  159 1   
   152  148  149 1   
   153  148  155 1   
   154  148  156 1   
   155  149  150 1   
   156  149  157 1   
   157  149  158 1   
   158  150  151 1   
   159  150  152 1   
   160  159  160 1   
   161  159  168 1   
   162  160  161 1   
   163  160  163 1   
   164  160  169 1   
   165  161  162 2   
   166  161  174 1   
   167  163  164 1   
   168  163  170 1   
   169  163  171 1   
   170  164  165 1   
   171  164  172 1   
   172  164  173 1   
   173  165  166 1   
   174  165  167 1   
   175  174  175 1   
   176  174  179 1   
   177  175  176 1   
   178  175  177 1   
   179  175  178 1   
   180  181  182 1   
   181  181  183 1   
   182  184  185 1   
   183  184  186 1   
   184  187  188 1   
   185  187  189 1   
@<TRIPOS>SUBSTRUCTURE
     1 MOL         1 TEMP              0 ****  ****    0 ROOT
