@<TRIPOS>MOLECULE
MOL
  181   177     1     0     0
SMALL
resp


@<TRIPOS>ATOM
      1 C1         -2.4860   -2.3160   -4.5290 c3        1 MOL     -0.285681
      2 C2         -3.8480   -1.6940   -4.3500 c         1 MOL      0.741425
      3 O1         -3.8720   -0.5500   -3.9730 o         1 MOL     -0.548204
      4 H1         -2.5230   -3.0450   -5.3390 hc        1 MOL      0.058013
      5 H2         -1.7610   -1.5400   -4.7730 hc        1 MOL      0.058013
      6 H3         -2.1900   -2.8140   -3.6060 hc        1 MOL      0.058013
      7 N1         -4.9490   -2.4180   -4.4280 n         1 MOL     -0.686255
      8 C3         -6.2890   -1.9080   -4.1260 c3        1 MOL      0.353111
      9 C4         -6.7670   -1.9010   -2.6900 c         1 MOL      0.480548
     10 O2         -7.6680   -1.2080   -2.1970 o         1 MOL     -0.478794
     11 C5         -7.4940   -2.3090   -5.0450 c3        1 MOL     -0.294290
     12 C6         -8.4940   -1.2250   -5.1470 c         1 MOL      0.736510
     13 O3         -8.1540   -0.0200   -5.0790 o         1 MOL     -0.732330
     14 O4         -9.7060   -1.5490   -5.3920 o         1 MOL     -0.732330
     15 H4         -4.9210   -3.4000   -4.6520 hn        1 MOL      0.288456
     16 H5         -6.1720   -0.8230   -4.1650 h1        1 MOL      0.040155
     17 H6         -7.9950   -3.1870   -4.6450 hc        1 MOL      0.019006
     18 H7         -7.1010   -2.5450   -6.0330 hc        1 MOL      0.019006
     19 N2         -6.1730   -2.7730   -1.9270 n         1 MOL     -0.453103
     20 C7         -6.2440   -3.0290   -0.5050 c3        1 MOL      0.290510
     21 C8         -5.7080   -1.8720    0.4100 c         1 MOL      0.520965
     22 O5         -5.7480   -0.6650    0.1280 o         1 MOL     -0.503906
     23 C9         -7.6120   -3.6760   -0.1990 c3        1 MOL     -0.321206
     24 H8         -5.6220   -3.4630   -2.4320 hn        1 MOL      0.196366
     25 H9         -5.5310   -3.8290   -0.3110 h1        1 MOL     -0.059384
     26 H10        -8.3130   -2.8540   -0.3260 hc        1 MOL      0.077490
     27 H11        -7.8620   -4.4970   -0.8670 hc        1 MOL      0.077490
     28 H12        -7.7030   -4.0860    0.8050 hc        1 MOL      0.077490
     29 N3         -5.1700   -2.2350    1.5730 n         1 MOL     -0.489159
     30 C10        -4.5410   -1.3760    2.4940 c3        1 MOL      0.156351
     31 C11        -5.4960   -0.6410    3.3950 c         1 MOL      0.670316
     32 O6         -6.5770   -1.1460    3.6650 o         1 MOL     -0.553689
     33 C12        -3.4870   -2.1890    3.2530 c3        1 MOL     -0.254293
     34 C13        -2.5660   -3.0540    2.3150 c         1 MOL      0.801810
     35 O7         -2.4880   -4.2760    2.5270 o         1 MOL     -0.749961
     36 O8         -1.9500   -2.5510    1.3510 o         1 MOL     -0.749961
     37 H13        -5.3420   -3.1890    1.8400 hn        1 MOL      0.258860
     38 H14        -4.0620   -0.5770    1.9380 h1        1 MOL      0.067967
     39 H15        -4.0170   -2.9020    3.8820 hc        1 MOL      0.031448
     40 H16        -2.8280   -1.6350    3.9160 hc        1 MOL      0.031448
     41 N4         -5.0420    0.5400    3.9080 n         1 MOL     -0.559912
     42 C14        -5.9020    1.4220    4.6810 c3        1 MOL      0.021785
     43 C15        -5.5340    2.8680    4.5050 c         1 MOL      0.639219
     44 O9         -6.1450    3.7130    5.0620 o         1 MOL     -0.574123
     45 H17        -4.1350    0.8260    3.5630 hn        1 MOL      0.293007
     46 H18        -5.8700    1.2090    5.7480 h1        1 MOL      0.065033
     47 H19        -6.9350    1.3670    4.3610 h1        1 MOL      0.065033
     48 N5         -4.3780    3.1840    3.8340 n         1 MOL     -0.330074
     49 C16        -3.7140    4.4540    3.6920 c3        1 MOL      0.165516
     50 C17        -3.1310    4.7010    2.2960 c         1 MOL      0.521533
     51 O10        -3.0400    3.8460    1.4070 o         1 MOL     -0.451117
     52 C18        -2.5780    4.5810    4.7480 c3        1 MOL     -0.514287
     53 C19        -3.0500    4.4790    6.1620 c         1 MOL      0.692545
     54 N6         -3.9660    5.2600    6.7060 n         1 MOL     -0.739224
     55 O11        -2.5940    3.5990    6.8670 o         1 MOL     -0.556046
     56 H20        -4.2110    2.4910    3.1300 hn        1 MOL      0.160885
     57 H21        -4.4360    5.2510    3.8020 h1        1 MOL     -0.000767
     58 H22        -2.0260    5.5090    4.6400 hc        1 MOL      0.159943
     59 H23        -1.8970    3.7500    4.5320 hc        1 MOL      0.159943
     60 H24        -4.3890    5.9760    6.1290 hn        1 MOL      0.349282
     61 H25        -4.1380    5.2370    7.6940 hn        1 MOL      0.349282
     62 N7         -2.6550    5.9200    1.9470 n         1 MOL     -0.470759
     63 C20        -2.3110    6.2830    0.5280 c3        1 MOL     -0.157146
     64 C21        -0.8250    5.9960    0.1470 c         1 MOL      0.699592
     65 O12        -0.0880    5.3140    0.8340 o         1 MOL     -0.516382
     66 H26        -2.6100    6.6050    2.6930 hn        1 MOL      0.288990
     67 H27        -2.5160    7.3480    0.3960 h1        1 MOL      0.105206
     68 H28        -2.9720    5.7020   -0.1200 h1        1 MOL      0.105206
     69 N8         -0.3180    6.6120   -0.9140 n         1 MOL     -0.489971
     70 C22         1.0710    6.8900   -1.3110 c3        1 MOL     -0.302704
     71 C23         1.8660    5.7040   -1.8250 c         1 MOL      0.552004
     72 O13         3.0240    5.8830   -2.1360 o         1 MOL     -0.558941
     73 C24         1.1380    7.9980   -2.3900 c3        1 MOL      0.495264
     74 C25         0.7490    7.5920   -3.8400 c3        1 MOL     -0.333663
     75 O14         0.6030    9.1710   -1.9360 oh        1 MOL     -0.626504
     76 H29        -1.0410    6.9290   -1.5470 hn        1 MOL      0.244593
     77 H30         1.6270    7.2620   -0.4520 h1        1 MOL      0.177739
     78 H31         2.2080    8.1980   -2.4410 h1        1 MOL      0.019519
     79 H32        -0.3000    8.9500   -1.6930 ho        1 MOL      0.364082
     80 H33         1.6110    7.0720   -4.2600 hc        1 MOL      0.081780
     81 H34        -0.1860    7.0290   -3.7930 hc        1 MOL      0.081780
     82 H35         0.7320    8.3810   -4.5840 hc        1 MOL      0.081780
     83 N9          1.3390    4.4550   -1.7950 n         1 MOL     -0.281176
     84 C26         2.0090    3.2050   -2.1920 c3        1 MOL     -0.000383
     85 C27         1.4210    2.0330   -1.4060 c         1 MOL      0.500809
     86 O15         0.3650    2.1240   -0.8430 o         1 MOL     -0.461032
     87 C28         1.8230    2.8740   -3.6930 c3        1 MOL      0.438502
     88 C29         0.3320    2.4640   -4.0730 c3        1 MOL     -0.018625
     89 C30         2.5110    3.8240   -4.6380 c3        1 MOL     -0.628867
     90 C31        -0.7100    3.6010   -4.0930 c3        1 MOL     -0.170844
     91 H36         0.3950    4.2940   -1.4570 hn        1 MOL      0.211081
     92 H37         3.0810    3.1780   -1.9940 h1        1 MOL      0.050793
     93 H38         2.3750    1.9620   -3.9040 hc        1 MOL     -0.076871
     94 H39         0.0260    1.6230   -3.4510 hc        1 MOL      0.015996
     95 H40         0.4440    2.1840   -5.1290 hc        1 MOL      0.015996
     96 H41         1.9340    4.7520   -4.6850 hc        1 MOL      0.141990
     97 H42         3.4500    4.0860   -4.1430 hc        1 MOL      0.141990
     98 H43         2.5800    3.2420   -5.5610 hc        1 MOL      0.141990
     99 H44        -0.2780    4.5600   -4.4050 hc        1 MOL      0.043552
    100 H45        -1.5690    3.3580   -4.7140 hc        1 MOL      0.043552
    101 H46        -1.0950    3.7160   -3.0870 hc        1 MOL      0.043552
    102 N10         2.2460    1.0750   -1.2690 n         1 MOL     -0.671564
    103 C32         2.1010   -0.0590   -0.4010 c3        1 MOL      0.491921
    104 C33         3.4280   -0.2950    0.4080 c         1 MOL      0.228077
    105 O16         3.6160   -1.3490    0.9920 o         1 MOL     -0.385368
    106 C34         1.7460   -1.3750   -1.1780 c3        1 MOL     -0.196354
    107 C35         1.1060   -2.4870   -0.4670 c         1 MOL      0.855273
    108 O17         0.9080   -2.4180    0.7500 o         1 MOL     -0.800462
    109 O18         0.6970   -3.4660   -1.0990 o         1 MOL     -0.800462
    110 H47         3.1140    1.2140   -1.7640 hn        1 MOL      0.254086
    111 H48         1.2670    0.1960    0.2610 h1        1 MOL      0.040077
    112 H49         2.5420   -1.8190   -1.7630 hc        1 MOL      0.035535
    113 H50         1.0310   -1.0480   -1.9400 hc        1 MOL      0.035535
    114 N11         4.2840    0.7690    0.4520 n         1 MOL     -0.435108
    115 C36         5.3800    0.7390    1.3890 c3        1 MOL      0.270726
    116 C37         6.4360   -0.3610    0.9390 c         1 MOL      0.285272
    117 O19         6.7650   -0.3980   -0.2330 o         1 MOL     -0.427604
    118 C38         6.0520    2.1310    1.5940 c3        1 MOL     -0.185460
    119 C39         6.5800    2.8830    0.3490 ca        1 MOL      0.040059
    120 C40         7.9380    2.7670    0.0120 ca        1 MOL     -0.106159
    121 C41         5.6660    3.6550   -0.3890 ca        1 MOL     -0.106159
    122 C42         8.4150    3.3770   -1.1720 ca        1 MOL     -0.136412
    123 C43         6.1540    4.3250   -1.5260 ca        1 MOL     -0.136412
    124 C44         7.4990    4.0840   -1.9710 ca        1 MOL     -0.103069
    125 H51         3.7860    1.6230    0.2400 hn        1 MOL      0.292023
    126 H52         4.9190    0.5000    2.3490 h1        1 MOL      0.033480
    127 H53         6.8460    2.0100    2.3370 hc        1 MOL      0.056574
    128 H54         5.3160    2.7540    2.1030 hc        1 MOL      0.056574
    129 H55         8.6620    2.3830    0.7230 ha        1 MOL      0.109274
    130 H56         4.6200    3.7040   -0.1220 ha        1 MOL      0.109274
    131 H57         9.4630    3.3990   -1.4620 ha        1 MOL      0.114642
    132 H58         5.4180    4.8420   -2.1300 ha        1 MOL      0.114642
    133 H59         7.8300    4.5480   -2.8910 ha        1 MOL      0.101804
    134 N12         6.8590   -1.2480    1.8470 n         1 MOL     -0.032169
    135 C45         7.6280   -2.4670    1.4930 c3        1 MOL     -0.132795
    136 C46         7.0560   -3.3830    0.3760 c         1 MOL      0.361105
    137 O20         7.7770   -3.8840   -0.5170 o         1 MOL     -0.519723
    138 C47         7.7610   -3.2760    2.7380 c3        1 MOL      0.156069
    139 C48         7.6540   -2.2880    3.8000 c3        1 MOL      0.081920
    140 C49         6.5540   -1.3350    3.1820 c3        1 MOL     -0.220307
    141 H60         8.6250   -2.0820    1.3010 h1        1 MOL      0.083594
    142 H61         6.8550   -3.8660    2.8770 hc        1 MOL     -0.013642
    143 H62         8.5840   -3.9570    2.9660 hc        1 MOL     -0.013642
    144 H63         7.3800   -2.6320    4.7930 hc        1 MOL     -0.005309
    145 H64         8.6470   -1.8510    3.9710 hc        1 MOL     -0.005309
    146 H65         5.5480   -1.7320    3.3730 h1        1 MOL      0.071609
    147 H66         6.5840   -0.3380    3.6090 h1        1 MOL      0.071609
    148 N13         5.7040   -3.5410    0.3830 n         1 MOL     -0.231369
    149 C50         5.0280   -4.3420   -0.6370 c3        1 MOL      0.029933
    150 C51         4.8700   -3.6550   -2.0400 c         1 MOL      0.362611
    151 O21         4.5900   -4.3370   -3.0160 o         1 MOL     -0.540205
    152 C52         3.6880   -4.8740   -0.1230 c3        1 MOL     -0.230582
    153 C53         3.7780   -5.9720    0.9230 c3        1 MOL     -0.284415
    154 C54         2.5590   -5.9560    1.7850 c         1 MOL      0.776547
    155 O22         2.6380   -5.8720    3.0300 o         1 MOL     -0.745014
    156 O23         1.4810   -6.2790    1.2290 o         1 MOL     -0.745014
    157 H67         5.1140   -3.0230    1.0130 hn        1 MOL      0.278003
    158 H68         5.6110   -5.2310   -0.8730 h1        1 MOL      0.091346
    159 H69         3.0920   -5.2900   -0.9270 hc        1 MOL      0.104261
    160 H70         3.1380   -4.0190    0.2660 hc        1 MOL      0.104261
    161 H71         4.7110   -6.0690    1.4790 hc        1 MOL      0.076825
    162 H72         3.7650   -6.9220    0.3850 hc        1 MOL      0.076825
    163 N14         5.2690   -2.3960   -2.1150 n         1 MOL      0.045447
    164 C55         5.4000   -1.6500   -3.3610 c3        1 MOL     -0.199544
    165 H73         6.0150   -0.7670   -3.1920 h1        1 MOL      0.070701
    166 H74         5.8710   -2.2810   -4.1150 h1        1 MOL      0.070701
    167 H75         4.4120   -1.3430   -3.7070 h1        1 MOL      0.070701
    168 H76         5.6230   -1.9450   -1.2820 hn        1 MOL      0.089915
    169 Ca1        -0.6580   -4.7140    0.6450 Ca        1 MOL      1.757292
    170 O24        -1.8840   -7.0510    1.2920 oh        1 MOL     -0.820843
    171 H77        -2.4420   -7.7240    0.9010 ho        1 MOL      0.400967
    172 H78        -2.0480   -7.1210    2.2320 ho        1 MOL      0.400967
    173 O25        -0.5870   -6.0180   -1.6770 oh        1 MOL     -0.820843
    174 H79         0.0880   -6.5210   -2.1230 ho        1 MOL      0.400967
    175 H80        -1.2110   -5.7880   -2.3650 ho        1 MOL      0.400967
    176 O26        -2.9480   -4.4870   -0.6320 oh        1 MOL     -0.820843
    177 H81        -3.5250   -4.9450   -0.0250 ho        1 MOL      0.400967
    178 H82        -3.4810   -4.3710   -1.4230 ho        1 MOL      0.400967
    179 O27         0.3250   -4.3400    3.0750 oh        1 MOL     -0.820843
    180 H83         1.0320   -4.9290    3.3320 ho        1 MOL      0.400967
    181 H84         0.6910   -3.4630    3.1500 ho        1 MOL      0.400967
@<TRIPOS>BOND
     1    1    2 1   
     2    1    4 1   
     3    1    5 1   
     4    1    6 1   
     5    2    3 2   
     6    2    7 1   
     7    7    8 1   
     8    7   15 1   
     9    8    9 1   
    10    8   11 1   
    11    8   16 1   
    12    9   10 2   
    13    9   19 1   
    14   11   12 1   
    15   11   17 1   
    16   11   18 1   
    17   12   13 1   
    18   12   14 1   
    19   19   20 1   
    20   19   24 1   
    21   20   21 1   
    22   20   23 1   
    23   20   25 1   
    24   21   22 2   
    25   21   29 1   
    26   23   26 1   
    27   23   27 1   
    28   23   28 1   
    29   29   30 1   
    30   29   37 1   
    31   30   31 1   
    32   30   33 1   
    33   30   38 1   
    34   31   32 2   
    35   31   41 1   
    36   33   34 1   
    37   33   39 1   
    38   33   40 1   
    39   34   35 1   
    40   34   36 1   
    41   41   42 1   
    42   41   45 1   
    43   42   43 1   
    44   42   46 1   
    45   42   47 1   
    46   43   44 2   
    47   43   48 1   
    48   48   49 1   
    49   48   56 1   
    50   49   50 1   
    51   49   52 1   
    52   49   57 1   
    53   50   51 2   
    54   50   62 1   
    55   52   53 1   
    56   52   58 1   
    57   52   59 1   
    58   53   54 1   
    59   53   55 2   
    60   54   60 1   
    61   54   61 1   
    62   62   63 1   
    63   62   66 1   
    64   63   64 1   
    65   63   67 1   
    66   63   68 1   
    67   64   65 2   
    68   64   69 1   
    69   69   70 1   
    70   69   76 1   
    71   70   71 1   
    72   70   73 1   
    73   70   77 1   
    74   71   72 2   
    75   71   83 1   
    76   73   74 1   
    77   73   75 1   
    78   73   78 1   
    79   74   80 1   
    80   74   81 1   
    81   74   82 1   
    82   75   79 1   
    83   83   84 1   
    84   83   91 1   
    85   84   85 1   
    86   84   87 1   
    87   84   92 1   
    88   85   86 2   
    89   85  102 1   
    90   87   88 1   
    91   87   89 1   
    92   87   93 1   
    93   88   90 1   
    94   88   94 1   
    95   88   95 1   
    96   89   96 1   
    97   89   97 1   
    98   89   98 1   
    99   90   99 1   
   100   90  100 1   
   101   90  101 1   
   102  102  103 1   
   103  102  110 1   
   104  103  104 1   
   105  103  106 1   
   106  103  111 1   
   107  104  105 2   
   108  104  114 1   
   109  106  107 1   
   110  106  112 1   
   111  106  113 1   
   112  107  108 1   
   113  107  109 1   
   114  114  115 1   
   115  114  125 1   
   116  115  116 1   
   117  115  118 1   
   118  115  126 1   
   119  116  117 2   
   120  116  134 1   
   121  118  119 1   
   122  118  127 1   
   123  118  128 1   
   124  119  120 ar  
   125  119  121 ar  
   126  120  122 ar  
   127  120  129 1   
   128  121  123 ar  
   129  121  130 1   
   130  122  124 ar  
   131  122  131 1   
   132  123  124 ar  
   133  123  132 1   
   134  124  133 1   
   135  134  135 1   
   136  134  140 1   
   137  135  136 1   
   138  135  138 1   
   139  135  141 1   
   140  136  137 2   
   141  136  148 1   
   142  138  139 1   
   143  138  142 1   
   144  138  143 1   
   145  139  140 1   
   146  139  144 1   
   147  139  145 1   
   148  140  146 1   
   149  140  147 1   
   150  148  149 1   
   151  148  157 1   
   152  149  150 1   
   153  149  152 1   
   154  149  158 1   
   155  150  151 2   
   156  150  163 1   
   157  152  153 1   
   158  152  159 1   
   159  152  160 1   
   160  153  154 1   
   161  153  161 1   
   162  153  162 1   
   163  154  155 1   
   164  154  156 1   
   165  163  164 1   
   166  163  168 1   
   167  164  165 1   
   168  164  166 1   
   169  164  167 1   
   170  170  171 1   
   171  170  172 1   
   172  173  174 1   
   173  173  175 1   
   174  176  177 1   
   175  176  178 1   
   176  179  180 1   
   177  179  181 1   
@<TRIPOS>SUBSTRUCTURE
     1 MOL         1 TEMP              0 ****  ****    0 ROOT
