@<TRIPOS>MOLECULE
MOL
  184   179     1     0     0
SMALL
resp


@<TRIPOS>ATOM
      1 C1          3.8540   -5.6550    3.0680 c3        1 MOL     -0.357162
      2 C2          4.1900   -4.3080    2.3890 c         1 MOL      0.803941
      3 O1          3.5740   -3.3120    2.7260 o         1 MOL     -0.583330
      4 H1          4.5200   -5.8100    3.9170 hc        1 MOL      0.081175
      5 H2          2.8210   -5.6390    3.4150 hc        1 MOL      0.081175
      6 H3          3.9850   -6.4660    2.3510 hc        1 MOL      0.081175
      7 N1          4.9950   -4.1940    1.3490 n         1 MOL     -0.745333
      8 C3          5.8770   -5.2750    0.7190 c3        1 MOL      0.343792
      9 C4          5.9260   -4.9110   -0.7660 c         1 MOL      0.416028
     10 O2          5.0160   -4.3460   -1.3420 o         1 MOL     -0.441879
     11 C5          7.2320   -5.2670    1.3020 c3        1 MOL     -0.243982
     12 C6          7.8600   -3.8640    1.2470 c         1 MOL      0.702412
     13 O3          8.6640   -3.5650    0.3180 o         1 MOL     -0.699599
     14 O4          7.6530   -2.9810    2.1600 o         1 MOL     -0.699599
     15 H4          5.1090   -3.3270    0.8580 hn        1 MOL      0.439092
     16 H5          5.4550   -6.2760    0.7590 h1        1 MOL      0.005480
     17 H6          7.8590   -5.9510    0.7320 hc        1 MOL      0.021645
     18 H7          7.1800   -5.6460    2.3290 hc        1 MOL      0.021645
     19 N2          7.0320   -5.2110   -1.4370 n         1 MOL     -0.553830
     20 C7          7.2220   -4.8680   -2.8480 c3        1 MOL      0.449149
     21 C8          6.8680   -3.3790   -3.2060 c         1 MOL      0.260246
     22 O5          6.2040   -3.0740   -4.1820 o         1 MOL     -0.457966
     23 C9          6.5330   -5.9000   -3.7140 c3        1 MOL     -0.453227
     24 H8          7.8400   -5.4910   -0.9040 hn        1 MOL      0.285509
     25 H9          8.2640   -5.0650   -3.0690 h1        1 MOL     -0.012014
     26 H10         7.0310   -6.8620   -3.6550 hc        1 MOL      0.110097
     27 H11         5.4520   -5.9430   -3.5840 hc        1 MOL      0.110097
     28 H12         6.7310   -5.6110   -4.7440 hc        1 MOL      0.110097
     29 N3          7.4600   -2.4580   -2.3920 n         1 MOL     -0.239307
     30 C10         7.2200   -1.0790   -2.6950 c3        1 MOL      0.011207
     31 C11         8.4980   -0.2550   -2.2850 c         1 MOL      0.501071
     32 O6          9.2310   -0.6240   -1.3400 o         1 MOL     -0.555894
     33 C12         5.9600   -0.6410   -2.0160 c3        1 MOL     -0.021180
     34 C13         5.9430   -0.7090   -0.4040 c         1 MOL      0.431698
     35 O7          6.9840   -0.7780    0.2990 o         1 MOL     -0.586279
     36 O8          4.8620   -0.6610    0.1730 o         1 MOL     -0.586279
     37 H13         7.9750   -2.7260   -1.5580 hn        1 MOL      0.095686
     38 H14         7.0290   -0.9760   -3.7610 h1        1 MOL      0.037754
     39 H15         5.1490   -1.2640   -2.3950 hc        1 MOL      0.054109
     40 H16         5.7640    0.3680   -2.3990 hc        1 MOL      0.054109
     41 N4          8.7770    0.8650   -3.0050 n         1 MOL     -0.470180
     42 C14         9.5400    2.0010   -2.4080 c3        1 MOL     -0.170554
     43 C15         8.7950    2.6650   -1.2940 c         1 MOL      0.376090
     44 O9          9.3800    2.9340   -0.2430 o         1 MOL     -0.493207
     45 H17         8.1420    1.1010   -3.7520 hn        1 MOL      0.298122
     46 H18         9.8340    2.6810   -3.2140 h1        1 MOL      0.130969
     47 H19        10.4230    1.5400   -1.9640 h1        1 MOL      0.130969
     48 N5          7.4600    2.8920   -1.3760 n         1 MOL     -0.233522
     49 C16         6.5930    3.8470   -0.5660 c3        1 MOL     -0.199997
     50 C17         5.1700    3.2860   -0.3090 c         1 MOL      0.717864
     51 O10         4.6530    2.3570   -0.9650 o         1 MOL     -0.444380
     52 C18         6.6660    5.2220   -1.3020 c3        1 MOL     -0.428748
     53 C19         8.0220    6.0310   -1.3590 c         1 MOL      0.806648
     54 N6          8.5670    6.3200   -2.5100 n         1 MOL     -0.817256
     55 O11         8.5680    6.3300   -0.3610 o         1 MOL     -0.564434
     56 H20         7.0700    2.6800   -2.2820 hn        1 MOL      0.270972
     57 H21         7.0010    4.0000    0.4340 h1        1 MOL      0.182390
     58 H22         5.9190    5.8900   -0.8540 hc        1 MOL      0.120784
     59 H23         6.2250    5.0920   -2.2930 hc        1 MOL      0.120784
     60 H24         8.2080    5.9840   -3.3990 hn        1 MOL      0.357661
     61 H25         9.5040    6.6960   -2.4690 hn        1 MOL      0.357661
     62 N7          4.5030    4.0110    0.6200 n         1 MOL     -0.526045
     63 C20         3.0410    3.8770    0.8900 c3        1 MOL     -0.296386
     64 C21         2.1500    4.2770   -0.3220 c         1 MOL      0.723311
     65 O12         2.5890    4.6740   -1.4340 o         1 MOL     -0.574531
     66 H26         4.8730    4.9100    0.8830 hn        1 MOL      0.320116
     67 H27         2.7790    4.5100    1.7410 h1        1 MOL      0.183832
     68 H28         2.9870    2.8010    1.0520 h1        1 MOL      0.183832
     69 N8          0.8030    4.2380   -0.2100 n         1 MOL     -0.588887
     70 C22        -0.0200    4.2560    1.0190 c3        1 MOL     -0.013820
     71 C23        -1.3240    3.4060    0.8690 c         1 MOL      0.619206
     72 O13        -2.0190    3.3750   -0.1630 o         1 MOL     -0.473070
     73 C24        -0.3900    5.6970    1.3980 c3        1 MOL      0.406262
     74 C25        -0.9580    5.8760    2.8630 c3        1 MOL     -0.368059
     75 O14         0.7920    6.4860    1.4080 oh        1 MOL     -0.621547
     76 H29         0.2570    4.5250   -1.0210 hn        1 MOL      0.330722
     77 H30         0.5670    3.9390    1.8830 h1        1 MOL      0.040912
     78 H31        -1.0710    6.0040    0.6080 h1        1 MOL     -0.003384
     79 H32         0.9690    6.7110    0.4970 ho        1 MOL      0.364971
     80 H33        -0.1300    5.8170    3.5790 hc        1 MOL      0.099403
     81 H34        -1.4860    6.8210    2.9060 hc        1 MOL      0.099403
     82 H35        -1.7140    5.1030    3.0050 hc        1 MOL      0.099403
     83 N9         -1.8090    2.6420    1.9190 n         1 MOL     -0.609098
     84 C26        -3.0440    1.9420    1.9380 c3        1 MOL      0.059004
     85 C27        -4.2880    2.8300    1.8010 c         1 MOL      0.625251
     86 O15        -4.3600    3.7860    2.5110 o         1 MOL     -0.599163
     87 C28        -3.1430    1.0680    3.1430 c3        1 MOL     -0.006671
     88 C29        -1.9810   -0.0200    3.0930 c3        1 MOL     -0.009648
     89 C30        -4.4900    0.2500    3.2990 c3        1 MOL     -0.118435
     90 C31        -1.8240   -0.9860    4.2540 c3        1 MOL     -0.231547
     91 H36        -1.2240    2.4930    2.7300 hn        1 MOL      0.287626
     92 H37        -3.1210    1.2270    1.1280 h1        1 MOL      0.075646
     93 H38        -3.0660    1.6970    4.0270 hc        1 MOL      0.008727
     94 H39        -1.0160    0.4760    2.9690 hc        1 MOL      0.054570
     95 H40        -2.0530   -0.6230    2.1940 hc        1 MOL      0.054570
     96 H41        -4.4300   -0.3730    4.1950 hc        1 MOL      0.036657
     97 H42        -5.3280    0.9420    3.4050 hc        1 MOL      0.036657
     98 H43        -4.6810   -0.4060    2.4510 hc        1 MOL      0.036657
     99 H44        -0.8460   -1.4810    4.2900 hc        1 MOL      0.055264
    100 H45        -1.8490   -0.4550    5.2060 hc        1 MOL      0.055264
    101 H46        -2.5550   -1.7810    4.1530 hc        1 MOL      0.055264
    102 N10        -5.3100    2.4760    0.9780 n         1 MOL     -0.351411
    103 C32        -5.4520    1.3170    0.0820 c3        1 MOL      0.006534
    104 C33        -6.8900    0.7800    0.3250 c         1 MOL      0.398745
    105 O16        -7.0640   -0.0400    1.1940 o         1 MOL     -0.549347
    106 C34        -5.0540    1.6730   -1.3790 c3        1 MOL     -0.235182
    107 C35        -5.5480    3.0020   -1.9130 c         1 MOL      0.683164
    108 O17        -4.8110    3.6390   -2.7310 o         1 MOL     -0.674614
    109 O18        -6.6550    3.4920   -1.5180 o         1 MOL     -0.674614
    110 H47        -6.0550    3.1460    1.0520 hn        1 MOL      0.245192
    111 H48        -4.8590    0.4570    0.3970 h1        1 MOL      0.087245
    112 H49        -5.3760    0.8980   -2.0650 hc        1 MOL      0.092321
    113 H50        -3.9610    1.6670   -1.4570 hc        1 MOL      0.092321
    114 N11        -7.9310    1.2650   -0.4160 n         1 MOL     -0.343508
    115 C36        -9.3730    0.9410   -0.4290 c3        1 MOL      0.617764
    116 C37        -9.7890    0.3680   -1.7720 c         1 MOL      0.117551
    117 O19        -9.3610    0.8530   -2.8320 o         1 MOL     -0.440948
    118 C38       -10.2180    2.1590   -0.2170 c3        1 MOL     -0.227868
    119 C39       -11.6620    1.9820    0.0560 ca        1 MOL      0.082742
    120 C40       -12.6300    2.2120   -0.9390 ca        1 MOL     -0.192796
    121 C41       -12.0540    1.4400    1.3250 ca        1 MOL     -0.192796
    122 C42       -13.9970    1.8060   -0.6800 ca        1 MOL     -0.069619
    123 C43       -13.3430    1.1590    1.5470 ca        1 MOL     -0.069619
    124 C44       -14.3450    1.2930    0.5610 ca        1 MOL     -0.163029
    125 H51        -7.7060    2.0040   -1.0610 hn        1 MOL      0.151468
    126 H52        -9.6070    0.2830    0.4130 h1        1 MOL     -0.101176
    127 H53       -10.0150    2.9070   -0.9960 hc        1 MOL      0.073510
    128 H54        -9.7550    2.5990    0.6710 hc        1 MOL      0.073510
    129 H55       -12.3100    2.6750   -1.8600 ha        1 MOL      0.135804
    130 H56       -11.3120    1.2380    2.0900 ha        1 MOL      0.135804
    131 H57       -14.7850    2.1450   -1.3400 ha        1 MOL      0.085308
    132 H58       -13.6210    0.8450    2.5430 ha        1 MOL      0.085308
    133 H59       -15.3500    1.0350    0.8220 ha        1 MOL      0.103654
    134 N12       -10.7800   -0.6460   -1.7710 n         1 MOL      0.074496
    135 C45       -11.3070   -1.4040   -0.5970 c3        1 MOL      0.035992
    136 C46       -10.3350   -2.3390    0.1310 c         1 MOL      0.514013
    137 O20       -10.5380   -2.6070    1.2760 o         1 MOL     -0.573354
    138 C47       -12.4010   -2.3390   -1.0990 c3        1 MOL     -0.230391
    139 C48       -12.0850   -2.4420   -2.6260 c3        1 MOL      0.025080
    140 C49       -11.6060   -1.0440   -2.9130 c3        1 MOL     -0.088977
    141 H60       -11.8440   -0.7730    0.1100 h1        1 MOL      0.049744
    142 H61       -12.3860   -3.3650   -0.7210 hc        1 MOL      0.072439
    143 H62       -13.3560   -1.8350   -0.9310 hc        1 MOL      0.072439
    144 H63       -11.3650   -3.2280   -2.8650 hc        1 MOL      0.016663
    145 H64       -12.9780   -2.6080   -3.2210 hc        1 MOL      0.016663
    146 H65       -10.9510   -1.1070   -3.7820 h1        1 MOL      0.043439
    147 H66       -12.3830   -0.3030   -3.1040 h1        1 MOL      0.043439
    148 N13        -9.2140   -2.7580   -0.4690 n         1 MOL     -0.279466
    149 C50        -8.1800   -3.5140    0.2590 c3        1 MOL     -0.031843
    150 C51        -8.6730   -4.8810    0.7020 c         1 MOL      0.522059
    151 O21        -8.7530   -5.8240   -0.1110 o         1 MOL     -0.578923
    152 C52        -6.9680   -3.7070   -0.6480 c3        1 MOL     -0.054476
    153 C53        -6.3330   -2.3820   -1.0510 c3        1 MOL     -0.169187
    154 C54        -5.4070   -2.6340   -2.2320 c         1 MOL      0.693479
    155 O22        -4.2340   -2.2310   -2.1100 o         1 MOL     -0.658010
    156 O23        -5.8350   -3.0750   -3.3290 o         1 MOL     -0.658010
    157 H67        -8.9910   -2.4590   -1.4110 hn        1 MOL      0.222577
    158 H68        -7.8590   -2.8660    1.0680 h1        1 MOL      0.121988
    159 H69        -7.1980   -4.1770   -1.6070 hc        1 MOL      0.034322
    160 H70        -6.2000   -4.3380   -0.2100 hc        1 MOL      0.034322
    161 H71        -5.7300   -2.0650   -0.2030 hc        1 MOL      0.058768
    162 H72        -7.0710   -1.5860   -1.1450 hc        1 MOL      0.058768
    163 N14        -8.8410   -5.2380    1.9820 n         1 MOL     -0.431215
    164 C55        -9.0300   -4.3060    3.2280 c3        1 MOL     -0.052413
    165 H73        -9.9760   -3.7710    3.1390 h1        1 MOL      0.057870
    166 H74        -9.0380   -4.9090    4.1360 h1        1 MOL      0.057870
    167 H75        -8.2110   -3.5890    3.2740 h1        1 MOL      0.057870
    168 H76        -9.0730   -6.2060    2.1700 hn        1 MOL      0.281875
    169 Ca1         9.4030   -1.1480    1.2810 Ca        1 MOL      1.680114
    170 O24         9.5160   -0.7480    4.1410 oh        1 MOL     -0.723267
    171 H77         9.8040   -1.1940    4.9360 ho        1 MOL      0.340249
    172 H78         9.8540    0.1480    4.2310 ho        1 MOL      0.340249
    173 O25        11.8340   -1.3460   -0.0410 oh        1 MOL     -0.723267
    174 H79        12.3290   -2.1300   -0.2970 ho        1 MOL      0.340249
    175 H80        12.1740   -0.6540   -0.6080 ho        1 MOL      0.340249
    176 O26        11.1100    0.7700    1.9430 oh        1 MOL     -0.723267
    177 H81        11.4410    1.4400    1.3420 ho        1 MOL      0.340249
    178 H82        11.8840    0.4900    2.4290 ho        1 MOL      0.340249
    179 O27        11.1400   -2.6410    2.5670 oh        1 MOL     -0.723267
    180 H83        11.0800   -3.2170    3.3280 ho        1 MOL      0.340249
    181 H84        12.0840   -2.5080    2.4380 ho        1 MOL      0.340249
    182 O28         8.3000    1.3410    2.0450 oh        1 MOL     -0.723267
    183 H85         7.9480    2.0540    2.5670 ho        1 MOL      0.340249
    184 H86         8.7310    1.7670    1.3000 ho        1 MOL      0.340249
@<TRIPOS>BOND
     1    1    2 1   
     2    1    4 1   
     3    1    5 1   
     4    1    6 1   
     5    2    3 2   
     6    2    7 1   
     7    7    8 1   
     8    7   15 1   
     9    8    9 1   
    10    8   11 1   
    11    8   16 1   
    12    9   10 2   
    13    9   19 1   
    14   11   12 1   
    15   11   17 1   
    16   11   18 1   
    17   12   13 1   
    18   12   14 1   
    19   19   20 1   
    20   19   24 1   
    21   20   21 1   
    22   20   23 1   
    23   20   25 1   
    24   21   22 2   
    25   21   29 1   
    26   23   26 1   
    27   23   27 1   
    28   23   28 1   
    29   29   30 1   
    30   29   37 1   
    31   30   31 1   
    32   30   33 1   
    33   30   38 1   
    34   31   32 2   
    35   31   41 1   
    36   33   34 1   
    37   33   39 1   
    38   33   40 1   
    39   34   35 1   
    40   34   36 1   
    41   41   42 1   
    42   41   45 1   
    43   42   43 1   
    44   42   46 1   
    45   42   47 1   
    46   43   44 2   
    47   43   48 1   
    48   48   49 1   
    49   48   56 1   
    50   49   50 1   
    51   49   52 1   
    52   49   57 1   
    53   50   51 2   
    54   50   62 1   
    55   52   53 1   
    56   52   58 1   
    57   52   59 1   
    58   53   54 1   
    59   53   55 2   
    60   54   60 1   
    61   54   61 1   
    62   62   63 1   
    63   62   66 1   
    64   63   64 1   
    65   63   67 1   
    66   63   68 1   
    67   64   65 2   
    68   64   69 1   
    69   69   70 1   
    70   69   76 1   
    71   70   71 1   
    72   70   73 1   
    73   70   77 1   
    74   71   72 2   
    75   71   83 1   
    76   73   74 1   
    77   73   75 1   
    78   73   78 1   
    79   74   80 1   
    80   74   81 1   
    81   74   82 1   
    82   75   79 1   
    83   83   84 1   
    84   83   91 1   
    85   84   85 1   
    86   84   87 1   
    87   84   92 1   
    88   85   86 2   
    89   85  102 1   
    90   87   88 1   
    91   87   89 1   
    92   87   93 1   
    93   88   90 1   
    94   88   94 1   
    95   88   95 1   
    96   89   96 1   
    97   89   97 1   
    98   89   98 1   
    99   90   99 1   
   100   90  100 1   
   101   90  101 1   
   102  102  103 1   
   103  102  110 1   
   104  103  104 1   
   105  103  106 1   
   106  103  111 1   
   107  104  105 2   
   108  104  114 1   
   109  106  107 1   
   110  106  112 1   
   111  106  113 1   
   112  107  108 1   
   113  107  109 1   
   114  114  115 1   
   115  114  125 1   
   116  115  116 1   
   117  115  118 1   
   118  115  126 1   
   119  116  117 2   
   120  116  134 1   
   121  118  119 1   
   122  118  127 1   
   123  118  128 1   
   124  119  120 ar  
   125  119  121 ar  
   126  120  122 ar  
   127  120  129 1   
   128  121  123 ar  
   129  121  130 1   
   130  122  124 ar  
   131  122  131 1   
   132  123  124 ar  
   133  123  132 1   
   134  124  133 1   
   135  134  135 1   
   136  134  140 1   
   137  135  136 1   
   138  135  138 1   
   139  135  141 1   
   140  136  137 2   
   141  136  148 1   
   142  138  139 1   
   143  138  142 1   
   144  138  143 1   
   145  139  140 1   
   146  139  144 1   
   147  139  145 1   
   148  140  146 1   
   149  140  147 1   
   150  148  149 1   
   151  148  157 1   
   152  149  150 1   
   153  149  152 1   
   154  149  158 1   
   155  150  151 2   
   156  150  163 1   
   157  152  153 1   
   158  152  159 1   
   159  152  160 1   
   160  153  154 1   
   161  153  161 1   
   162  153  162 1   
   163  154  155 1   
   164  154  156 1   
   165  163  164 1   
   166  163  168 1   
   167  164  165 1   
   168  164  166 1   
   169  164  167 1   
   170  170  171 1   
   171  170  172 1   
   172  173  174 1   
   173  173  175 1   
   174  176  177 1   
   175  176  178 1   
   176  179  180 1   
   177  179  181 1   
   178  182  183 1   
   179  182  184 1   
@<TRIPOS>SUBSTRUCTURE
     1 MOL         1 TEMP              0 ****  ****    0 ROOT
