@<TRIPOS>MOLECULE
MOL
  182   178     1     0     0
SMALL
resp


@<TRIPOS>ATOM
      1 C1          1.8560   -4.9770    5.8460 c3        1 MOL     -0.427543
      2 C2          1.8420   -4.7690    4.3650 c         1 MOL      0.851367
      3 O1          0.9930   -5.3060    3.6480 o         1 MOL     -0.634104
      4 H1          1.1870   -5.7990    6.1040 hc        1 MOL      0.106484
      5 H2          2.8680   -5.2180    6.1700 hc        1 MOL      0.106484
      6 H3          1.5210   -4.0680    6.3450 hc        1 MOL      0.106484
      7 N1          2.7600   -3.9190    3.9500 n         1 MOL     -0.713105
      8 C3          2.8090   -3.4720    2.5550 c3        1 MOL      0.021376
      9 C4          3.0160   -4.6610    1.5640 c         1 MOL      0.554838
     10 O2          3.6010   -5.7270    1.8980 o         1 MOL     -0.527724
     11 C5          3.9480   -2.4170    2.4620 c3        1 MOL      0.043339
     12 C6          3.7010   -1.4160    1.2940 c         1 MOL      0.478418
     13 O3          4.0680   -0.2410    1.3350 o         1 MOL     -0.627500
     14 O4          3.1260   -1.9230    0.3160 o         1 MOL     -0.627500
     15 H4          3.4540   -3.5140    4.5590 hn        1 MOL      0.363884
     16 H5          1.9280   -2.8620    2.3800 h1        1 MOL      0.006405
     17 H6          4.8830   -2.9710    2.4610 hc        1 MOL      0.012947
     18 H7          3.9030   -1.8030    3.3560 hc        1 MOL      0.012947
     19 N2          2.4720   -4.4930    0.3640 n         1 MOL     -0.374129
     20 C7          2.5460   -5.3550   -0.8640 c3        1 MOL     -0.031895
     21 C8          3.4130   -4.8100   -2.0640 c         1 MOL      0.472109
     22 O5          3.7320   -5.6000   -2.9760 o         1 MOL     -0.573162
     23 C9          1.1070   -5.3940   -1.5170 c3        1 MOL      0.064416
     24 C10         0.1150   -5.9930   -0.6190 c3        1 MOL      0.048293
     25 C11        -1.2110   -6.3920   -1.4010 c3        1 MOL     -0.267321
     26 C12        -2.1050   -7.0610   -0.3060 c3        1 MOL      0.161118
     27 N3         -3.1040   -7.9340   -0.9380 n4        1 MOL     -0.275985
     28 H8          1.8700   -3.6980    0.2550 hn        1 MOL      0.270791
     29 H9          2.7880   -6.4020   -0.7260 h1        1 MOL      0.101174
     30 H10         1.1710   -6.0130   -2.4090 hc        1 MOL     -0.005250
     31 H11         0.7460   -4.4140   -1.8350 hc        1 MOL     -0.005250
     32 H12        -0.1640   -5.3140    0.1900 hc        1 MOL      0.030035
     33 H13         0.3970   -6.9460   -0.1620 hc        1 MOL      0.030035
     34 H14        -0.8280   -7.1440   -2.0860 hc        1 MOL      0.094918
     35 H15        -1.7970   -5.6190   -1.8750 hc        1 MOL      0.094918
     36 H16        -2.6880   -6.2720    0.1690 hx        1 MOL      0.054922
     37 H17        -1.5380   -7.6430    0.4280 hx        1 MOL      0.054922
     38 H18        -3.5400   -7.4510   -1.7150 hn        1 MOL      0.265178
     39 H19        -2.7000   -8.7940   -1.2910 hn        1 MOL      0.265178
     40 H20        -3.8880   -8.0940   -0.3200 hn        1 MOL      0.265178
     41 N4          3.8210   -3.5960   -2.1230 n         1 MOL     -0.224371
     42 C13         4.9620   -3.0830   -2.9750 c3        1 MOL      0.038847
     43 C14         6.1850   -2.6990   -2.1510 c         1 MOL      0.404805
     44 O6          7.2690   -2.5210   -2.6650 o         1 MOL     -0.521354
     45 C15         4.3930   -2.0150   -3.9500 c3        1 MOL     -0.450134
     46 C16         3.9210   -0.7270   -3.1750 c         1 MOL      0.905319
     47 O7          4.5550   -0.2760   -2.2110 o         1 MOL     -0.814140
     48 O8          2.8100   -0.1840   -3.3500 o         1 MOL     -0.814140
     49 H21         3.6590   -3.0150   -1.3070 hn        1 MOL      0.177817
     50 H22         5.3780   -3.9250   -3.5200 h1        1 MOL      0.138064
     51 H23         3.6180   -2.5100   -4.5410 hc        1 MOL      0.136889
     52 H24         5.1710   -1.7230   -4.6520 hc        1 MOL      0.136889
     53 N5          6.0200   -2.5470   -0.8640 n         1 MOL     -0.203005
     54 C17         7.0220   -2.0510    0.1170 c3        1 MOL     -0.246354
     55 C18         7.3220   -0.5850    0.2240 c         1 MOL      0.448294
     56 O9          8.1620   -0.2130    1.0780 o         1 MOL     -0.558370
     57 H25         5.1420   -2.7230   -0.4110 hn        1 MOL      0.164363
     58 H26         7.9770   -2.5530   -0.0560 h1        1 MOL      0.146454
     59 H27         6.6790   -2.3780    1.0980 h1        1 MOL      0.146454
     60 N6          6.7680    0.2950   -0.5950 n         1 MOL     -0.111978
     61 C19         7.1190    1.7240   -0.7160 c3        1 MOL     -0.069550
     62 C20         5.8400    2.6040   -0.4660 c         1 MOL      0.551546
     63 O10         4.7590    2.0640   -0.4720 o         1 MOL     -0.472598
     64 C21         7.7190    1.9840   -2.0980 c3        1 MOL     -0.144603
     65 C22         8.9810    1.1230   -2.3250 c         1 MOL      0.688648
     66 N7          8.8640   -0.1520   -2.6820 n         1 MOL     -0.841829
     67 O11        10.0630    1.7200   -2.2540 o         1 MOL     -0.580250
     68 H28         6.0420   -0.0440   -1.2150 hn        1 MOL      0.267656
     69 H29         7.9300    1.8840    0.0010 h1        1 MOL      0.086467
     70 H30         7.9840    3.0270   -2.2920 hc        1 MOL      0.026988
     71 H31         6.9410    1.7860   -2.8290 hc        1 MOL      0.026988
     72 H32         7.9860   -0.6470   -2.5830 hn        1 MOL      0.385249
     73 H33         9.7330   -0.6630   -2.7350 hn        1 MOL      0.385249
     74 N8          6.0930    3.9090   -0.2370 n         1 MOL     -0.550704
     75 C23         5.0840    4.9890   -0.2400 c3        1 MOL      0.172354
     76 C24         3.9210    4.7110    0.7150 c         1 MOL      0.425808
     77 O12         4.1400    4.2760    1.8440 o         1 MOL     -0.430366
     78 H34         7.0660    4.1900   -0.2350 hn        1 MOL      0.340993
     79 H35         4.6740    5.1390   -1.2370 h1        1 MOL      0.031420
     80 H36         5.5110    5.9670   -0.0080 h1        1 MOL      0.031420
     81 N9          2.6560    5.1290    0.3310 n         1 MOL     -0.547751
     82 C25         1.4120    4.7950    1.0630 c3        1 MOL      0.319425
     83 C26         1.2430    3.3160    1.4200 c         1 MOL      0.561884
     84 O13         1.7390    2.4990    0.6650 o         1 MOL     -0.569903
     85 C27         0.2080    5.3140    0.2130 c3        1 MOL     -0.284104
     86 C28         0.1660    6.8380    0.1340 ca        1 MOL      0.088348
     87 C29         0.1190    7.6390    1.3200 ca        1 MOL     -0.172914
     88 C30         0.0290    7.4500   -1.0960 ca        1 MOL     -0.172914
     89 C31         0.1550    9.0600    1.1890 ca        1 MOL     -0.229366
     90 C32        -0.0020    8.8220   -1.2190 ca        1 MOL     -0.229366
     91 C33         0.0460    9.6720   -0.1100 ca        1 MOL      0.307430
     92 O14        -0.1570   10.9610   -0.2270 oh        1 MOL     -0.433142
     93 H37         2.5350    5.8040   -0.4040 hn        1 MOL      0.273385
     94 H38         1.3690    5.2990    2.0360 h1        1 MOL      0.027258
     95 H39        -0.7200    5.0210    0.7140 hc        1 MOL      0.099122
     96 H40         0.1860    4.8380   -0.7630 hc        1 MOL      0.099122
     97 H41         0.0870    7.1950    2.3030 ha        1 MOL      0.129836
     98 H42         0.0260    6.7610   -1.9420 ha        1 MOL      0.129836
     99 H43         0.0390    9.7020    2.0460 ha        1 MOL      0.144612
    100 H44        -0.0410    9.2750   -2.2000 ha        1 MOL      0.144612
    101 H45        -0.4620   11.2200   -1.0990 ho        1 MOL      0.362897
    102 N10         0.5490    2.9450    2.4390 n         1 MOL     -0.863688
    103 C34         0.2700    1.5500    2.7980 c3        1 MOL      0.605874
    104 C35         0.0340    0.5320    1.7030 c         1 MOL      0.314313
    105 O15         0.9490   -0.1700    1.2080 o         1 MOL     -0.466425
    106 C36         1.3840    1.0280    3.7060 c3        1 MOL      0.133155
    107 C37         1.0730   -0.2950    4.4190 c3        1 MOL     -0.068972
    108 C38         2.0330    2.0900    4.6580 c3        1 MOL     -0.356880
    109 C39        -0.1360   -0.2820    5.3310 c3        1 MOL     -0.247343
    110 H46         0.1980    3.6200    3.1010 hn        1 MOL      0.373091
    111 H47        -0.6170    1.5410    3.4340 h1        1 MOL     -0.056757
    112 H48         2.2570    0.8490    3.0650 hc        1 MOL      0.032987
    113 H49         1.9230   -0.5190    5.0530 hc        1 MOL      0.081013
    114 H50         0.9430   -0.9560    3.5590 hc        1 MOL      0.081013
    115 H51         2.6290    2.8390    4.1160 hc        1 MOL      0.090795
    116 H52         1.2370    2.4900    5.2790 hc        1 MOL      0.090795
    117 H53         2.7580    1.6770    5.3630 hc        1 MOL      0.090795
    118 H54        -1.0530   -0.4080    4.7510 hc        1 MOL      0.051597
    119 H55         0.0320   -1.1390    5.9800 hc        1 MOL      0.051597
    120 H56        -0.0870    0.6040    5.9600 hc        1 MOL      0.051597
    121 N11        -1.2430    0.3450    1.3110 n         1 MOL     -0.493587
    122 C40        -1.8170   -0.8610    0.8050 c3        1 MOL     -0.019578
    123 C41        -3.2590   -0.7120    0.3300 c         1 MOL      0.626421
    124 O16        -3.7740   -1.6290   -0.3490 o         1 MOL     -0.543918
    125 C42        -1.7230   -2.1120    1.6720 c3        1 MOL      0.133403
    126 O17        -2.2700   -1.7910    2.8760 oh        1 MOL     -0.563781
    127 H57        -1.8520    1.0290    1.7270 hn        1 MOL      0.307996
    128 H58        -1.3090   -1.1200   -0.1190 h1        1 MOL      0.057869
    129 H59        -0.6530   -2.3170    1.7850 h1        1 MOL      0.035169
    130 H60        -2.2140   -2.9770    1.2480 h1        1 MOL      0.035169
    131 H61        -2.3060   -2.5430    3.4640 ho        1 MOL      0.413571
    132 N12        -3.9080    0.4800    0.4200 n         1 MOL     -0.520968
    133 C43        -5.3250    0.5750   -0.0420 c3        1 MOL      0.025658
    134 C44        -5.4580    0.5410   -1.5780 c         1 MOL      0.738060
    135 O18        -4.4180    0.7800   -2.2290 o         1 MOL     -0.615391
    136 C45        -5.9180    1.8590    0.5560 c3        1 MOL     -0.196934
    137 H62        -3.4870    1.3310    0.7680 hn        1 MOL      0.304824
    138 H63        -5.9390   -0.2680    0.2770 h1        1 MOL      0.098988
    139 H64        -6.9900    1.7920    0.3800 hc        1 MOL      0.063041
    140 H65        -5.5650    2.0520    1.5710 hc        1 MOL      0.063041
    141 H66        -5.5710    2.7090   -0.0330 hc        1 MOL      0.063041
    142 N13        -6.5820    0.3140   -2.1730 n         1 MOL     -0.698183
    143 C46        -7.6850   -0.5590   -1.6470 c3        1 MOL      0.414772
    144 C47        -9.0290   -0.1620   -2.2670 c         1 MOL      0.332576
    145 O19        -9.1310    0.2270   -3.4610 o         1 MOL     -0.521061
    146 C48        -7.3040   -2.0200   -1.9780 c3        1 MOL     -0.391666
    147 H67        -6.6190    0.4180   -3.1730 hn        1 MOL      0.341446
    148 H68        -7.7030   -0.3670   -0.5770 h1        1 MOL     -0.027011
    149 H69        -8.2460   -2.5620   -1.9210 hc        1 MOL      0.111031
    150 H70        -6.9790   -2.0490   -3.0130 hc        1 MOL      0.111031
    151 H71        -6.5530   -2.3380   -1.2570 hc        1 MOL      0.111031
    152 N14       -10.1390   -0.2270   -1.5550 n         1 MOL     -0.166322
    153 C49       -10.2680   -0.8180   -0.2170 c3        1 MOL     -0.289388
    154 C50       -10.2270    0.1960    0.9290 c         1 MOL      0.467526
    155 O20       -10.1400   -0.3270    2.0780 o         1 MOL     -0.539843
    156 C51       -11.5720   -1.7290   -0.1370 c3        1 MOL      0.080553
    157 C52       -12.9140   -0.8220   -0.0360 c3        1 MOL     -0.320581
    158 C53       -13.2800   -0.0310   -1.2610 c         1 MOL      0.732953
    159 O21       -12.8100    1.0940   -1.3720 o         1 MOL     -0.665785
    160 O22       -13.9970   -0.5090   -2.2030 o         1 MOL     -0.665785
    161 H72       -10.9390    0.2840   -1.9170 hn        1 MOL      0.243383
    162 H73        -9.4380   -1.5150   -0.1020 h1        1 MOL      0.116406
    163 H74       -11.4810   -2.3970    0.7190 hc        1 MOL      0.024494
    164 H75       -11.6200   -2.4550   -0.9570 hc        1 MOL      0.024494
    165 H76       -12.8960   -0.2070    0.8680 hc        1 MOL      0.079871
    166 H77       -13.7860   -1.4590    0.1030 hc        1 MOL      0.079871
    167 N15       -10.2440    1.5100    0.6910 n         1 MOL     -0.201932
    168 C54       -10.0720    2.4740    1.7320 c3        1 MOL     -0.041639
    169 H78        -9.8740    1.9610    2.6720 h1        1 MOL      0.051474
    170 H79        -9.2300    3.1240    1.4900 h1        1 MOL      0.051474
    171 H80       -10.9780    3.0720    1.8270 h1        1 MOL      0.051474
    172 H81       -10.3360    1.7100   -0.2950 hn        1 MOL      0.221751
    173 Ca1         2.4490    0.6180   -0.8800 Ca        1 MOL      1.746817
    174 O23         2.9240    2.6850   -2.8180 oh        1 MOL     -0.808885
    175 H82         3.5540    2.2110   -3.3580 ho        1 MOL      0.405590
    176 H83         2.9910    3.5950   -3.1150 ho        1 MOL      0.405590
    177 O24         0.6640   -1.4800   -1.9320 oh        1 MOL     -0.808885
    178 H84         0.9060   -1.8720   -2.7740 ho        1 MOL      0.405590
    179 H85        -0.2810   -1.2980   -2.0080 ho        1 MOL      0.405590
    180 O25         0.0730    1.4950   -1.5950 oh        1 MOL     -0.808885
    181 H86        -0.7410    0.9930   -1.5390 ho        1 MOL      0.405590
    182 H87        -0.1890    2.3270   -1.9830 ho        1 MOL      0.405590
@<TRIPOS>BOND
     1    1    2 1   
     2    1    4 1   
     3    1    5 1   
     4    1    6 1   
     5    2    3 2   
     6    2    7 1   
     7    7    8 1   
     8    7   15 1   
     9    8    9 1   
    10    8   11 1   
    11    8   16 1   
    12    9   10 2   
    13    9   19 1   
    14   11   12 1   
    15   11   17 1   
    16   11   18 1   
    17   12   13 1   
    18   12   14 1   
    19   19   20 1   
    20   19   28 1   
    21   20   21 1   
    22   20   23 1   
    23   20   29 1   
    24   21   22 2   
    25   21   41 1   
    26   23   24 1   
    27   23   30 1   
    28   23   31 1   
    29   24   25 1   
    30   24   32 1   
    31   24   33 1   
    32   25   26 1   
    33   25   34 1   
    34   25   35 1   
    35   26   27 1   
    36   26   36 1   
    37   26   37 1   
    38   27   38 1   
    39   27   39 1   
    40   27   40 1   
    41   41   42 1   
    42   41   49 1   
    43   42   43 1   
    44   42   45 1   
    45   42   50 1   
    46   43   44 2   
    47   43   53 1   
    48   45   46 1   
    49   45   51 1   
    50   45   52 1   
    51   46   47 1   
    52   46   48 1   
    53   53   54 1   
    54   53   57 1   
    55   54   55 1   
    56   54   58 1   
    57   54   59 1   
    58   55   56 2   
    59   55   60 1   
    60   60   61 1   
    61   60   68 1   
    62   61   62 1   
    63   61   64 1   
    64   61   69 1   
    65   62   63 2   
    66   62   74 1   
    67   64   65 1   
    68   64   70 1   
    69   64   71 1   
    70   65   66 1   
    71   65   67 2   
    72   66   72 1   
    73   66   73 1   
    74   74   75 1   
    75   74   78 1   
    76   75   76 1   
    77   75   79 1   
    78   75   80 1   
    79   76   77 2   
    80   76   81 1   
    81   81   82 1   
    82   81   93 1   
    83   82   83 1   
    84   82   85 1   
    85   82   94 1   
    86   83   84 2   
    87   83  102 1   
    88   85   86 1   
    89   85   95 1   
    90   85   96 1   
    91   86   87 ar  
    92   86   88 ar  
    93   87   89 ar  
    94   87   97 1   
    95   88   90 ar  
    96   88   98 1   
    97   89   91 ar  
    98   89   99 1   
    99   90   91 ar  
   100   90  100 1   
   101   91   92 1   
   102   92  101 1   
   103  102  103 1   
   104  102  110 1   
   105  103  104 1   
   106  103  106 1   
   107  103  111 1   
   108  104  105 2   
   109  104  121 1   
   110  106  107 1   
   111  106  108 1   
   112  106  112 1   
   113  107  109 1   
   114  107  113 1   
   115  107  114 1   
   116  108  115 1   
   117  108  116 1   
   118  108  117 1   
   119  109  118 1   
   120  109  119 1   
   121  109  120 1   
   122  121  122 1   
   123  121  127 1   
   124  122  123 1   
   125  122  125 1   
   126  122  128 1   
   127  123  124 2   
   128  123  132 1   
   129  125  126 1   
   130  125  129 1   
   131  125  130 1   
   132  126  131 1   
   133  132  133 1   
   134  132  137 1   
   135  133  134 1   
   136  133  136 1   
   137  133  138 1   
   138  134  135 2   
   139  134  142 1   
   140  136  139 1   
   141  136  140 1   
   142  136  141 1   
   143  142  143 1   
   144  142  147 1   
   145  143  144 1   
   146  143  146 1   
   147  143  148 1   
   148  144  145 2   
   149  144  152 1   
   150  146  149 1   
   151  146  150 1   
   152  146  151 1   
   153  152  153 1   
   154  152  161 1   
   155  153  154 1   
   156  153  156 1   
   157  153  162 1   
   158  154  155 2   
   159  154  167 1   
   160  156  157 1   
   161  156  163 1   
   162  156  164 1   
   163  157  158 1   
   164  157  165 1   
   165  157  166 1   
   166  158  159 1   
   167  158  160 1   
   168  167  168 1   
   169  167  172 1   
   170  168  169 1   
   171  168  170 1   
   172  168  171 1   
   173  174  175 1   
   174  174  176 1   
   175  177  178 1   
   176  177  179 1   
   177  180  181 1   
   178  180  182 1   
@<TRIPOS>SUBSTRUCTURE
     1 MOL         1 TEMP              0 ****  ****    0 ROOT
