@<TRIPOS>MOLECULE
MOL
  192   187     1     0     0
SMALL
resp


@<TRIPOS>ATOM
      1 C1          4.7820    4.6890   -2.9330 c3        1 MOL     -0.505026
      2 C2          5.4010    3.6670   -1.9550 c         1 MOL      0.966515
      3 O1          4.6190    3.1750   -1.0950 o         1 MOL     -0.634209
      4 H1          4.1490    5.3830   -2.3800 hc        1 MOL      0.121805
      5 H2          5.5770    5.2420   -3.4330 hc        1 MOL      0.121805
      6 H3          4.1810    4.1640   -3.6760 hc        1 MOL      0.121805
      7 N1          6.6910    3.3000   -2.0400 n         1 MOL     -0.887213
      8 C3          7.3140    2.1120   -1.4550 c3        1 MOL      0.432404
      9 C4          6.3280    0.8960   -1.4530 c         1 MOL      0.210000
     10 O2          5.8610    0.5240   -0.3500 o         1 MOL     -0.631513
     11 C5          7.9210    2.3840   -0.1400 c3        1 MOL     -0.089400
     12 C6          7.3350    3.6080    0.6080 c         1 MOL      0.648959
     13 O3          6.2100    3.5350    1.1660 o         1 MOL     -0.708139
     14 O4          7.9610    4.7020    0.5760 o         1 MOL     -0.708139
     15 H4          7.3480    3.9370   -2.4720 hn        1 MOL      0.377429
     16 H5          8.1310    1.8900   -2.1520 h1        1 MOL      0.014259
     17 H6          8.9810    2.5190   -0.3350 hc        1 MOL      0.010897
     18 H7          7.9350    1.5250    0.5330 hc        1 MOL      0.010897
     19 N2          6.0090    0.4180   -2.6190 n         1 MOL     -0.398317
     20 C7          5.2160   -0.7330   -2.9490 c3        1 MOL      0.148323
     21 C8          5.8030   -2.1040   -2.4400 c         1 MOL      0.314189
     22 O5          6.0800   -3.0100   -3.2640 o         1 MOL     -0.547570
     23 C9          3.7570   -0.5180   -2.5350 c3        1 MOL      0.013745
     24 C10         2.9310   -1.7670   -2.8760 c3        1 MOL     -0.123358
     25 C11         3.1340    0.6690   -3.2690 c3        1 MOL     -0.217462
     26 C12         2.6380   -2.1720   -4.3740 c3        1 MOL     -0.210002
     27 H8          6.3360    0.9930   -3.3870 hn        1 MOL      0.270885
     28 H9          5.3170   -0.8740   -4.0210 h1        1 MOL      0.052668
     29 H10         3.6330   -0.3350   -1.4620 hc        1 MOL      0.014987
     30 H11         1.9780   -1.7770   -2.3520 hc        1 MOL      0.094846
     31 H12         3.4050   -2.6670   -2.4920 hc        1 MOL      0.094846
     32 H13         3.3170    0.7310   -4.3420 hc        1 MOL      0.060197
     33 H14         2.0560    0.5250   -3.1670 hc        1 MOL      0.060197
     34 H15         3.4800    1.6210   -2.8890 hc        1 MOL      0.060197
     35 H16         3.5290   -2.0350   -4.9810 hc        1 MOL      0.047153
     36 H17         2.3100   -3.2040   -4.4900 hc        1 MOL      0.047153
     37 H18         1.9110   -1.4720   -4.7690 hc        1 MOL      0.047153
     38 N3          6.0880   -2.2380   -1.1610 n         1 MOL     -0.203500
     39 C13         6.9740   -3.3030   -0.6300 c3        1 MOL      0.120856
     40 C14         6.3430   -4.6930   -0.3730 c         1 MOL      0.475746
     41 O6          6.9980   -5.6900   -0.8120 o         1 MOL     -0.592826
     42 C15         7.6280   -2.8760    0.7110 c3        1 MOL     -0.303429
     43 C16         8.4700   -1.5920    0.7130 c         1 MOL      0.726048
     44 O7          8.2660   -0.7750    1.7060 o         1 MOL     -0.704602
     45 O8          9.3170   -1.3680   -0.1820 o         1 MOL     -0.704602
     46 H19         5.9950   -1.3010   -0.7880 hn        1 MOL      0.459545
     47 H20         7.8020   -3.4000   -1.3340 h1        1 MOL      0.050956
     48 H21         8.2490   -3.6650    1.1250 hc        1 MOL      0.079962
     49 H22         6.8880   -2.6420    1.4800 hc        1 MOL      0.079962
     50 N4          5.2080   -4.9030    0.2420 n         1 MOL     -0.400696
     51 C17         4.3260   -3.8740    0.8990 c3        1 MOL      0.026937
     52 C18         4.5950   -3.6270    2.4580 c         1 MOL      0.485747
     53 O9          5.6170   -4.0690    2.9310 o         1 MOL     -0.516616
     54 H23         4.8360   -5.8270    0.1210 hn        1 MOL      0.290870
     55 H24         3.2730   -4.1020    0.7380 h1        1 MOL      0.019345
     56 H25         4.4800   -2.8610    0.5250 h1        1 MOL      0.019345
     57 N5          3.7300   -2.9740    3.2490 n         1 MOL     -0.343524
     58 C19         2.4090   -2.4900    2.9210 c3        1 MOL      0.181260
     59 C20         2.4170   -1.3870    1.8230 c         1 MOL      0.195082
     60 O10         3.5230   -0.7400    1.5520 o         1 MOL     -0.555245
     61 C21         1.6940   -1.8860    4.1950 c3        1 MOL     -0.282938
     62 C22         1.5780   -2.8490    5.3390 c         1 MOL      0.683269
     63 O11         0.6100   -3.6320    5.3330 o         1 MOL     -0.709900
     64 O12         2.5250   -2.9500    6.1720 o         1 MOL     -0.709900
     65 H26         4.1030   -2.5590    4.0880 hn        1 MOL      0.260199
     66 H27         1.7030   -3.2930    2.6960 h1        1 MOL      0.042202
     67 H28         0.6680   -1.6320    3.9110 hc        1 MOL      0.056486
     68 H29         2.1900   -1.0020    4.5920 hc        1 MOL      0.056486
     69 N6          1.3850   -0.9940    1.0870 n         1 MOL     -0.074100
     70 C23         0.0630   -1.5600    1.0290 c3        1 MOL     -0.122926
     71 C24        -0.0620   -2.8490    0.2770 c         1 MOL      0.553726
     72 O13         0.9120   -3.3350   -0.2780 o         1 MOL     -0.553687
     73 H30         1.6300   -0.2780    0.4190 hn        1 MOL      0.195806
     74 H31        -0.5010   -0.7460    0.5720 h1        1 MOL      0.025257
     75 H32        -0.2920   -1.7240    2.0480 h1        1 MOL      0.025257
     76 N7         -1.2940   -3.2380    0.0430 n         1 MOL     -0.315859
     77 C25        -1.6800   -4.4380   -0.7190 c3        1 MOL     -0.023892
     78 C26        -2.6260   -4.2300   -1.9180 c         1 MOL      0.390196
     79 O14        -2.9830   -5.1700   -2.6430 o         1 MOL     -0.501385
     80 C27        -2.2890   -5.4290    0.3090 c3        1 MOL      0.096945
     81 C28        -3.8340   -5.2120    0.6030 c3        1 MOL     -0.480902
     82 C29        -4.3260   -6.1660    1.7190 c         1 MOL      0.704333
     83 N8         -3.8790   -6.1670    2.9920 n         1 MOL     -0.825257
     84 O15        -5.2400   -6.9660    1.4320 o         1 MOL     -0.564851
     85 H33        -1.9730   -2.6890    0.5530 hn        1 MOL      0.241108
     86 H34        -0.7820   -4.9480   -1.0440 h1        1 MOL      0.127043
     87 H35        -1.7730   -5.3640    1.2610 hc        1 MOL      0.038237
     88 H36        -2.1260   -6.4140   -0.1590 hc        1 MOL      0.038237
     89 H37        -4.3580   -5.5960   -0.2720 hc        1 MOL      0.121240
     90 H38        -4.1250   -4.1670    0.7260 hc        1 MOL      0.121240
     91 H39        -3.2590   -5.4200    3.2490 hn        1 MOL      0.386528
     92 H40        -4.2090   -6.8020    3.7180 hn        1 MOL      0.386528
     93 N9         -2.9630   -2.9720   -2.1780 n         1 MOL     -0.141754
     94 C30        -3.5350   -2.4550   -3.3900 c3        1 MOL     -0.145855
     95 C31        -4.8960   -1.9110   -3.1900 c         1 MOL      0.636323
     96 O16        -5.5440   -1.7450   -4.2050 o         1 MOL     -0.540001
     97 C32        -2.6080   -1.4650   -4.1130 c3        1 MOL      0.090817
     98 C33        -1.3450   -2.2020   -4.5990 c3        1 MOL     -0.186105
     99 C34        -2.2530   -0.0750   -3.4420 c3        1 MOL     -0.186105
    100 H41        -2.5220   -2.2880   -1.5780 hn        1 MOL      0.139756
    101 H42        -3.6360   -3.2390   -4.1390 h1        1 MOL      0.143621
    102 H43        -3.0880   -1.1630   -5.0420 hc        1 MOL      0.025869
    103 H44        -1.6410   -3.0970   -5.1410 hc        1 MOL      0.052013
    104 H45        -0.7120   -1.4920   -5.1260 hc        1 MOL      0.052013
    105 H46        -0.7440   -2.5290   -3.7510 hc        1 MOL      0.052013
    106 H47        -1.8990   -0.2830   -2.4290 hc        1 MOL      0.052013
    107 H48        -1.5530    0.4770   -4.0740 hc        1 MOL      0.052013
    108 H49        -3.1100    0.5910   -3.3410 hc        1 MOL      0.052013
    109 N10        -5.4090   -1.7330   -1.9560 n         1 MOL     -0.566922
    110 C35        -6.8100   -1.2500   -1.7450 c3        1 MOL      0.183465
    111 C36        -7.0320    0.1950   -1.3160 c         1 MOL      0.542099
    112 O17        -8.0960    0.7520   -1.6080 o         1 MOL     -0.538987
    113 C37        -7.5430   -2.2570   -0.7710 c3        1 MOL     -0.364569
    114 C38        -7.4880   -3.6740   -1.3950 c         1 MOL      0.673184
    115 N11        -6.9720   -4.6990   -0.7410 n         1 MOL     -0.776863
    116 O18        -7.8700   -3.8880   -2.5170 o         1 MOL     -0.522283
    117 H50        -4.8690   -1.9220   -1.1160 hn        1 MOL      0.301286
    118 H51        -7.2770   -1.3390   -2.7300 h1        1 MOL      0.066066
    119 H52        -8.5660   -1.9060   -0.6640 hc        1 MOL      0.107668
    120 H53        -7.0200   -2.2200    0.1880 hc        1 MOL      0.107668
    121 H54        -6.8530   -4.6310    0.2630 hn        1 MOL      0.357125
    122 H55        -6.9460   -5.5650   -1.2470 hn        1 MOL      0.357125
    123 N12        -6.0380    0.7880   -0.6820 n         1 MOL     -0.523469
    124 C39        -6.2050    2.1380   -0.1060 c3        1 MOL      0.343154
    125 C40        -4.7960    2.7630    0.0340 c         1 MOL      0.466400
    126 O19        -3.7690    2.1170   -0.1560 o         1 MOL     -0.477114
    127 C41        -6.8480    2.0190    1.3190 c3        1 MOL     -0.188379
    128 C42        -8.0230    1.0570    1.4520 ca        1 MOL      0.018976
    129 C43        -9.3050    1.4770    1.0840 ca        1 MOL     -0.120712
    130 C44        -7.8540   -0.1770    2.1080 ca        1 MOL     -0.120712
    131 C45       -10.3850    0.6160    1.3310 ca        1 MOL     -0.270839
    132 C46        -8.9530   -1.0640    2.3460 ca        1 MOL     -0.270839
    133 C47       -10.2460   -0.6680    1.9910 ca        1 MOL      0.351411
    134 O20       -11.4220   -1.2970    2.3750 oh        1 MOL     -0.523385
    135 H56        -5.2090    0.2480   -0.4860 hn        1 MOL      0.242129
    136 H57        -6.7350    2.7760   -0.8080 h1        1 MOL      0.010269
    137 H58        -7.1410    3.0140    1.6560 hc        1 MOL      0.092786
    138 H59        -6.0790    1.6550    2.0040 hc        1 MOL      0.092786
    139 H60        -9.4810    2.4930    0.7380 ha        1 MOL      0.126728
    140 H61        -6.8500   -0.4880    2.3560 ha        1 MOL      0.126728
    141 H62       -11.3610    1.0550    1.1330 ha        1 MOL      0.138565
    142 H63        -8.8160   -1.9630    2.9190 ha        1 MOL      0.138565
    143 H64       -12.2070   -0.8090    2.1100 ho        1 MOL      0.374542
    144 N13        -4.7610    4.0560    0.4640 n         1 MOL     -0.734453
    145 C48        -3.6960    4.9150    1.0160 c3        1 MOL      0.144553
    146 C49        -2.3910    5.1220    0.1860 c         1 MOL      0.322710
    147 O21        -1.8100    6.1470    0.2640 o         1 MOL     -0.495893
    148 C50        -3.3610    4.5070    2.5110 c3        1 MOL      0.299055
    149 C51        -2.7540    5.6160    3.3670 c3        1 MOL     -0.425553
    150 C52        -3.8130    6.7550    3.5550 c         1 MOL      0.750928
    151 O22        -3.7140    7.7870    2.8250 o         1 MOL     -0.743958
    152 O23        -4.8110    6.5660    4.3030 o         1 MOL     -0.743958
    153 H65        -5.6920    4.4460    0.4950 hn        1 MOL      0.350215
    154 H66        -4.0640    5.9280    1.1150 h1        1 MOL      0.100695
    155 H67        -2.6750    3.6750    2.3670 hc        1 MOL     -0.064406
    156 H68        -4.2090    4.0400    3.0080 hc        1 MOL     -0.064406
    157 H69        -1.8240    5.9840    2.9280 hc        1 MOL      0.077267
    158 H70        -2.6330    5.1730    4.3580 hc        1 MOL      0.077267
    159 N14        -1.9670    4.2340   -0.6560 n         1 MOL     -0.087584
    160 C53        -0.7590    4.2770   -1.4600 c3        1 MOL     -0.008261
    161 C54        -0.9830    5.2600   -2.6570 c         1 MOL      0.523815
    162 O24        -0.0970    6.0550   -2.9480 o         1 MOL     -0.551961
    163 C55        -0.3850    2.9070   -1.9600 c3        1 MOL     -0.036241
    164 C56        -0.2270    1.6580   -1.0350 c3        1 MOL      0.175633
    165 C57         0.6510    1.9650    0.1340 c         1 MOL      0.677356
    166 O25         0.1730    2.3260    1.2160 o         1 MOL     -0.676569
    167 O26         1.8200    1.6160   -0.0560 o         1 MOL     -0.676569
    168 H71        -2.4910    3.3850   -0.5050 hn        1 MOL      0.143812
    169 H72         0.1060    4.6810   -0.9230 h1        1 MOL      0.078104
    170 H73         0.5300    3.0490   -2.5220 hc        1 MOL     -0.029177
    171 H74        -1.1770    2.7100   -2.6780 hc        1 MOL     -0.029177
    172 H75         0.2150    0.8700   -1.6580 hc        1 MOL     -0.063639
    173 H76        -1.2260    1.3750   -0.7110 hc        1 MOL     -0.063639
    174 N15        -2.1270    5.1940   -3.2880 n         1 MOL     -0.264007
    175 C58        -2.7550    6.0750   -4.2010 c3        1 MOL     -0.261001
    176 H77        -3.3990    6.7640   -3.6550 h1        1 MOL      0.109344
    177 H78        -1.9960    6.6400   -4.7430 h1        1 MOL      0.109344
    178 H79        -3.3540    5.5000   -4.9070 h1        1 MOL      0.109344
    179 H80        -2.6660    4.3900   -2.9980 hn        1 MOL      0.230586
    180 Ca1         4.2140    1.9060    1.3590 Ca        1 MOL      1.819197
    181 O27         3.1400    4.5320    1.1060 oh        1 MOL     -0.858481
    182 H81         3.0910    4.9760    0.2610 ho        1 MOL      0.409818
    183 H82         2.3800    4.8670    1.5890 ho        1 MOL      0.409818
    184 O28         1.9550    1.5940    3.0740 oh        1 MOL     -0.858481
    185 H83         1.5020    1.7540    3.9010 ho        1 MOL      0.409818
    186 H84         1.2640    1.6130    2.4150 ho        1 MOL      0.409818
    187 O29         4.3180    2.4350    4.0040 oh        1 MOL     -0.858481
    188 H85         4.7240    2.3940    4.8650 ho        1 MOL      0.409818
    189 H86         3.3810    2.3170    4.1730 ho        1 MOL      0.409818
    190 O30         5.9620    0.2360    2.5820 oh        1 MOL     -0.858481
    191 H87         6.7650   -0.2840    2.4520 ho        1 MOL      0.409818
    192 H88         5.6270   -0.0480    3.4210 ho        1 MOL      0.409818
@<TRIPOS>BOND
     1    1    2 1   
     2    1    4 1   
     3    1    5 1   
     4    1    6 1   
     5    2    3 2   
     6    2    7 1   
     7    7    8 1   
     8    7   15 1   
     9    8    9 1   
    10    8   11 1   
    11    8   16 1   
    12    9   10 2   
    13    9   19 1   
    14   11   12 1   
    15   11   17 1   
    16   11   18 1   
    17   12   13 1   
    18   12   14 1   
    19   19   20 1   
    20   19   27 1   
    21   20   21 1   
    22   20   23 1   
    23   20   28 1   
    24   21   22 2   
    25   21   38 1   
    26   23   24 1   
    27   23   25 1   
    28   23   29 1   
    29   24   26 1   
    30   24   30 1   
    31   24   31 1   
    32   25   32 1   
    33   25   33 1   
    34   25   34 1   
    35   26   35 1   
    36   26   36 1   
    37   26   37 1   
    38   38   39 1   
    39   38   46 1   
    40   39   40 1   
    41   39   42 1   
    42   39   47 1   
    43   40   41 2   
    44   40   50 1   
    45   42   43 1   
    46   42   48 1   
    47   42   49 1   
    48   43   44 1   
    49   43   45 1   
    50   50   51 1   
    51   50   54 1   
    52   51   52 1   
    53   51   55 1   
    54   51   56 1   
    55   52   53 2   
    56   52   57 1   
    57   57   58 1   
    58   57   65 1   
    59   58   59 1   
    60   58   61 1   
    61   58   66 1   
    62   59   60 2   
    63   59   69 1   
    64   61   62 1   
    65   61   67 1   
    66   61   68 1   
    67   62   63 1   
    68   62   64 1   
    69   69   70 1   
    70   69   73 1   
    71   70   71 1   
    72   70   74 1   
    73   70   75 1   
    74   71   72 2   
    75   71   76 1   
    76   76   77 1   
    77   76   85 1   
    78   77   78 1   
    79   77   80 1   
    80   77   86 1   
    81   78   79 2   
    82   78   93 1   
    83   80   81 1   
    84   80   87 1   
    85   80   88 1   
    86   81   82 1   
    87   81   89 1   
    88   81   90 1   
    89   82   83 1   
    90   82   84 2   
    91   83   91 1   
    92   83   92 1   
    93   93   94 1   
    94   93  100 1   
    95   94   95 1   
    96   94   97 1   
    97   94  101 1   
    98   95   96 2   
    99   95  109 1   
   100   97   98 1   
   101   97   99 1   
   102   97  102 1   
   103   98  103 1   
   104   98  104 1   
   105   98  105 1   
   106   99  106 1   
   107   99  107 1   
   108   99  108 1   
   109  109  110 1   
   110  109  117 1   
   111  110  111 1   
   112  110  113 1   
   113  110  118 1   
   114  111  112 2   
   115  111  123 1   
   116  113  114 1   
   117  113  119 1   
   118  113  120 1   
   119  114  115 1   
   120  114  116 2   
   121  115  121 1   
   122  115  122 1   
   123  123  124 1   
   124  123  135 1   
   125  124  125 1   
   126  124  127 1   
   127  124  136 1   
   128  125  126 2   
   129  125  144 1   
   130  127  128 1   
   131  127  137 1   
   132  127  138 1   
   133  128  129 ar  
   134  128  130 ar  
   135  129  131 ar  
   136  129  139 1   
   137  130  132 ar  
   138  130  140 1   
   139  131  133 ar  
   140  131  141 1   
   141  132  133 ar  
   142  132  142 1   
   143  133  134 1   
   144  134  143 1   
   145  144  145 1   
   146  144  153 1   
   147  145  146 1   
   148  145  148 1   
   149  145  154 1   
   150  146  147 2   
   151  146  159 1   
   152  148  149 1   
   153  148  155 1   
   154  148  156 1   
   155  149  150 1   
   156  149  157 1   
   157  149  158 1   
   158  150  151 1   
   159  150  152 1   
   160  159  160 1   
   161  159  168 1   
   162  160  161 1   
   163  160  163 1   
   164  160  169 1   
   165  161  162 2   
   166  161  174 1   
   167  163  164 1   
   168  163  170 1   
   169  163  171 1   
   170  164  165 1   
   171  164  172 1   
   172  164  173 1   
   173  165  166 1   
   174  165  167 1   
   175  174  175 1   
   176  174  179 1   
   177  175  176 1   
   178  175  177 1   
   179  175  178 1   
   180  181  182 1   
   181  181  183 1   
   182  184  185 1   
   183  184  186 1   
   184  187  188 1   
   185  187  189 1   
   186  190  191 1   
   187  190  192 1   
@<TRIPOS>SUBSTRUCTURE
     1 MOL         1 TEMP              0 ****  ****    0 ROOT
