@<TRIPOS>MOLECULE
MOL
  189   185     1     0     0
SMALL
resp


@<TRIPOS>ATOM
      1 C1          3.9330    4.6250   -2.4840 c3        1 MOL     -0.502305
      2 C2          4.8280    3.9070   -1.3920 c         1 MOL      0.758023
      3 O1          4.3160    3.3070   -0.4230 o         1 MOL     -0.616833
      4 H1          3.1130    3.9670   -2.7710 hc        1 MOL      0.127548
      5 H2          3.5300    5.5510   -2.0730 hc        1 MOL      0.127548
      6 H3          4.5410    4.8500   -3.3610 hc        1 MOL      0.127548
      7 N1          6.1220    3.8450   -1.6270 n         1 MOL     -0.534271
      8 C3          6.9890    2.7960   -1.3190 c3        1 MOL      0.208228
      9 C4          6.3290    1.4000   -1.3410 c         1 MOL      0.449033
     10 O2          6.0380    0.8560   -0.3090 o         1 MOL     -0.597333
     11 C5          7.7420    3.1920   -0.0160 c3        1 MOL     -0.024792
     12 C6          6.9470    3.8100    1.1460 c         1 MOL      0.732163
     13 O3          6.1870    3.1500    1.8350 o         1 MOL     -0.744735
     14 O4          6.9970    5.0360    1.2320 o         1 MOL     -0.744735
     15 H4          6.5590    4.4160   -2.3310 hn        1 MOL      0.287886
     16 H5          7.7870    2.7640   -2.0630 h1        1 MOL      0.019375
     17 H6          8.4700    3.9230   -0.3440 hc        1 MOL     -0.023179
     18 H7          8.2780    2.2990    0.3270 hc        1 MOL     -0.023179
     19 N2          6.0240    0.8580   -2.5150 n         1 MOL     -0.500381
     20 C7          5.3640   -0.4030   -2.8930 c3        1 MOL      0.328967
     21 C8          6.0710   -1.6780   -2.4420 c         1 MOL      0.215531
     22 O5          6.4450   -2.5090   -3.2720 o         1 MOL     -0.542127
     23 C9          3.8790   -0.4020   -2.4330 c3        1 MOL      0.522355
     24 C10         3.0680   -1.7060   -2.7010 c3        1 MOL     -0.359168
     25 C11         3.0940    0.8070   -3.0230 c3        1 MOL     -0.099125
     26 C12         3.0190   -2.2890   -4.0880 c3        1 MOL      0.024117
     27 H8          6.2580    1.4040   -3.3290 hn        1 MOL      0.234616
     28 H9          5.3200   -0.5920   -3.9640 h1        1 MOL     -0.041565
     29 H10         3.9050   -0.3170   -1.3490 hc        1 MOL     -0.264812
     30 H11         2.0790   -1.5920   -2.2460 hc        1 MOL      0.128591
     31 H12         3.5160   -2.4630   -2.0550 hc        1 MOL      0.128591
     32 H13         3.3710    0.8600   -4.0720 hc        1 MOL     -0.017938
     33 H14         2.0530    0.6590   -2.7560 hc        1 MOL     -0.017938
     34 H15         3.4110    1.7450   -2.5640 hc        1 MOL     -0.017938
     35 H16         2.4360   -3.2010   -4.2040 hc        1 MOL     -0.007693
     36 H17         2.7290   -1.5260   -4.8180 hc        1 MOL     -0.007693
     37 H18         4.0180   -2.5440   -4.4370 hc        1 MOL     -0.007693
     38 N3          6.5130   -1.7010   -1.1920 n         1 MOL      0.033939
     39 C13         7.4290   -2.6140   -0.5860 c3        1 MOL      0.095509
     40 C14         6.9410   -4.0760   -0.6950 c         1 MOL      0.570701
     41 O6          7.7530   -4.9010   -1.1240 o         1 MOL     -0.594003
     42 C15         7.8840   -2.2560    0.7530 c3        1 MOL     -0.285337
     43 C16         8.3810   -0.7790    0.9320 c         1 MOL      0.766933
     44 O7          8.9680   -0.3080   -0.0770 o         1 MOL     -0.697674
     45 O8          8.2000   -0.2250    2.0510 o         1 MOL     -0.697674
     46 H19         6.3670   -0.8270   -0.7120 hn        1 MOL      0.149503
     47 H20         8.3110   -2.5160   -1.2140 h1        1 MOL      0.019195
     48 H21         8.7790   -2.8290    1.0300 hc        1 MOL      0.063589
     49 H22         7.0960   -2.5090    1.4670 hc        1 MOL      0.063589
     50 N4          5.6760   -4.4250   -0.3710 n         1 MOL     -0.558375
     51 C17         4.6800   -3.6230    0.3580 c3        1 MOL      0.342922
     52 C18         3.4320   -4.4690    0.8690 c         1 MOL      0.518483
     53 O9          3.2640   -5.6050    0.3690 o         1 MOL     -0.567832
     54 H23         5.2950   -5.2850   -0.7310 hn        1 MOL      0.303612
     55 H24         4.2660   -2.8930   -0.3330 h1        1 MOL     -0.117134
     56 H25         5.1240   -2.9860    1.1190 h1        1 MOL     -0.117134
     57 N5          2.6280   -3.9570    1.8090 n         1 MOL     -0.415727
     58 C19         2.4340   -2.6850    2.4940 c3        1 MOL      0.090792
     59 C20         2.5000   -1.4420    1.5470 c         1 MOL      0.482194
     60 O10         3.5350   -0.8460    1.2370 o         1 MOL     -0.460630
     61 C21         3.4760   -2.6230    3.6500 c3        1 MOL     -0.424081
     62 C22         3.5160   -3.8460    4.5220 c         1 MOL      0.707253
     63 O11         4.6620   -4.3930    4.6110 o         1 MOL     -0.711363
     64 O12         2.5220   -4.1360    5.2490 o         1 MOL     -0.711363
     65 H26         1.8170   -4.5370    2.0030 hn        1 MOL      0.291260
     66 H27         1.4740   -2.7010    3.0200 h1        1 MOL      0.033243
     67 H28         3.2270   -1.7400    4.2300 hc        1 MOL      0.123100
     68 H29         4.4850   -2.4310    3.2730 hc        1 MOL      0.123100
     69 N6          1.4280   -0.9180    1.0220 n         1 MOL     -0.113745
     70 C23         0.0100   -1.2620    1.1640 c3        1 MOL     -0.256428
     71 C24        -0.4650   -2.5410    0.4920 c         1 MOL      0.563066
     72 O13         0.2180   -3.2080   -0.3050 o         1 MOL     -0.528150
     73 H30         1.6530   -0.1440    0.4110 hn        1 MOL      0.170472
     74 H31        -0.6450   -0.5070    0.7400 h1        1 MOL      0.098138
     75 H32        -0.2300   -1.3870    2.2180 h1        1 MOL      0.098138
     76 N7         -1.6450   -2.9500    0.9020 n         1 MOL     -0.399192
     77 C25        -2.4120   -4.0380    0.4420 c3        1 MOL     -0.027148
     78 C26        -2.6900   -4.0400   -1.0940 c         1 MOL      0.320056
     79 O14        -2.9130   -5.1120   -1.7210 o         1 MOL     -0.474631
     80 C27        -3.7150   -4.0980    1.2730 c3        1 MOL     -0.029933
     81 C28        -4.5060   -5.3570    0.8930 c3        1 MOL     -0.380618
     82 C29        -5.6840   -5.4630    1.8540 c         1 MOL      0.752212
     83 N8         -6.8290   -4.9860    1.4170 n         1 MOL     -0.793501
     84 O15        -5.5990   -5.9550    2.9330 o         1 MOL     -0.594920
     85 H33        -2.0870   -2.3090    1.5470 hn        1 MOL      0.243379
     86 H34        -1.8070   -4.9280    0.6380 h1        1 MOL      0.157379
     87 H35        -4.2500   -3.1560    1.1460 hc        1 MOL      0.062622
     88 H36        -3.4930   -4.1200    2.3440 hc        1 MOL      0.062622
     89 H37        -3.7630   -6.1520    0.9350 hc        1 MOL      0.118776
     90 H38        -4.9080   -5.3420   -0.1160 hc        1 MOL      0.118776
     91 H39        -6.9100   -4.6920    0.4530 hn        1 MOL      0.329277
     92 H40        -7.5890   -5.0630    2.0720 hn        1 MOL      0.329277
     93 N9         -2.5710   -2.8380   -1.6950 n         1 MOL      0.000595
     94 C30        -3.0200   -2.5340   -3.0710 c3        1 MOL     -0.349206
     95 C31        -4.4620   -2.1370   -3.3380 c         1 MOL      0.603126
     96 O16        -4.8850   -2.2370   -4.5250 o         1 MOL     -0.566721
     97 C32        -2.0280   -1.6000   -3.8050 c3        1 MOL      0.198968
     98 C33        -0.6280   -2.3140   -4.0180 c3        1 MOL     -0.162931
     99 C34        -1.7200   -0.2680   -3.1310 c3        1 MOL     -0.162931
    100 H41        -2.5310   -2.0300   -1.0850 hn        1 MOL      0.147908
    101 H42        -2.8650   -3.4870   -3.5900 h1        1 MOL      0.160101
    102 H43        -2.2690   -1.4180   -4.8560 hc        1 MOL      0.018248
    103 H44         0.1270   -1.6840   -4.4880 hc        1 MOL      0.036360
    104 H45        -0.1680   -2.6010   -3.0730 hc        1 MOL      0.036360
    105 H46        -0.8050   -3.2000   -4.6260 hc        1 MOL      0.036360
    106 H47        -2.6220    0.3370   -3.2630 hc        1 MOL      0.036360
    107 H48        -1.4570   -0.3540   -2.0770 hc        1 MOL      0.036360
    108 H49        -0.8980    0.1630   -3.7110 hc        1 MOL      0.036360
    109 N10        -5.2240   -1.5970   -2.3920 n         1 MOL     -0.442528
    110 C35        -6.5720   -1.0570   -2.5580 c3        1 MOL      0.129748
    111 C36        -6.8140    0.3340   -2.0220 c         1 MOL      0.457924
    112 O17        -7.8690    0.8150   -2.3970 o         1 MOL     -0.520035
    113 C37        -7.6680   -2.0150   -1.9780 c3        1 MOL     -0.094030
    114 C38        -7.3550   -3.4710   -2.2280 c         1 MOL      0.551149
    115 N11        -7.7030   -3.9830   -3.3810 n         1 MOL     -0.717615
    116 O18        -6.9210   -4.2730   -1.3620 o         1 MOL     -0.507394
    117 H50        -4.8170   -1.7130   -1.4750 hn        1 MOL      0.282588
    118 H51        -6.9350   -1.0830   -3.5810 h1        1 MOL      0.058764
    119 H52        -8.6670   -1.7460   -2.3190 hc        1 MOL      0.021343
    120 H53        -7.6790   -1.8580   -0.8990 hc        1 MOL      0.021343
    121 H54        -8.0880   -3.3620   -4.0820 hn        1 MOL      0.364650
    122 H55        -7.6760   -4.9850   -3.4930 hn        1 MOL      0.364650
    123 N12        -5.8970    0.8610   -1.1710 n         1 MOL     -0.380859
    124 C39        -6.1590    2.1100   -0.5290 c3        1 MOL      0.072406
    125 C40        -4.8430    2.7870    0.0550 c         1 MOL      0.488219
    126 O19        -3.8770    2.0990    0.1310 o         1 MOL     -0.441646
    127 C41        -7.1270    1.8040    0.6250 c3        1 MOL     -0.246416
    128 C42        -6.9670    0.5500    1.5380 ca        1 MOL      0.039261
    129 C43        -7.8900   -0.5180    1.3150 ca        1 MOL     -0.129444
    130 C44        -5.9500    0.5080    2.5270 ca        1 MOL     -0.129444
    131 C45        -7.9690   -1.5420    2.2290 ca        1 MOL     -0.301630
    132 C46        -6.1170   -0.5260    3.4660 ca        1 MOL     -0.301630
    133 C47        -7.0630   -1.5570    3.3150 ca        1 MOL      0.352232
    134 O20        -7.0210   -2.6150    4.1280 oh        1 MOL     -0.453115
    135 H56        -5.1240    0.2510   -0.9530 hn        1 MOL      0.216751
    136 H57        -6.6340    2.7660   -1.2560 h1        1 MOL      0.074813
    137 H58        -8.1800    1.8440    0.3490 hc        1 MOL      0.096462
    138 H59        -7.1800    2.6330    1.3180 hc        1 MOL      0.096462
    139 H60        -8.5510   -0.4710    0.4700 ha        1 MOL      0.160985
    140 H61        -5.1940    1.2520    2.7210 ha        1 MOL      0.160985
    141 H62        -8.7030   -2.3240    2.0780 ha        1 MOL      0.160948
    142 H63        -5.4520   -0.5270    4.3120 ha        1 MOL      0.160948
    143 H64        -7.5460   -3.3430    3.7970 ho        1 MOL      0.335443
    144 N13        -4.9400    4.0860    0.4710 n         1 MOL     -0.586041
    145 C48        -3.8310    4.9150    1.0980 c3        1 MOL      0.108192
    146 C49        -2.5750    5.1820    0.3130 c         1 MOL      0.421008
    147 O21        -2.0660    6.2950    0.3160 o         1 MOL     -0.496165
    148 C50        -3.5990    4.5590    2.5610 c3        1 MOL     -0.202712
    149 C51        -4.8130    4.8260    3.4300 c3        1 MOL      0.091287
    150 C52        -5.0250    6.2200    3.7820 c         1 MOL      0.645596
    151 O22        -4.3850    6.5960    4.8510 o         1 MOL     -0.730692
    152 O23        -5.8140    6.8600    3.0650 o         1 MOL     -0.730692
    153 H65        -5.8500    4.5050    0.3580 hn        1 MOL      0.324873
    154 H66        -4.2970    5.9080    1.1110 h1        1 MOL      0.096462
    155 H67        -2.7180    5.0320    2.9880 hc        1 MOL      0.074197
    156 H68        -3.4820    3.4830    2.6370 hc        1 MOL      0.074197
    157 H69        -4.7790    4.3270    4.3980 hc        1 MOL     -0.041187
    158 H70        -5.7200    4.4160    2.9920 hc        1 MOL     -0.041187
    159 N14        -2.1780    4.2050   -0.5300 n         1 MOL     -0.262341
    160 C53        -1.0860    4.3880   -1.4150 c3        1 MOL      0.011666
    161 C54        -1.4850    5.3540   -2.5530 c         1 MOL      0.453882
    162 O24        -0.5870    6.0630   -3.0320 o         1 MOL     -0.533960
    163 C55        -0.6150    3.0150   -1.8740 c3        1 MOL     -0.147945
    164 C56        -0.2720    1.9990   -0.7040 c3        1 MOL      0.396610
    165 C57         0.8220    2.5030    0.1620 c         1 MOL      0.537238
    166 O25         1.8150    1.7300    0.3170 o         1 MOL     -0.633087
    167 O26         0.5480    3.4430    0.9470 o         1 MOL     -0.633087
    168 H71        -2.7710    3.3900   -0.5030 hn        1 MOL      0.228616
    169 H72        -0.2850    4.8660   -0.8360 h1        1 MOL      0.121235
    170 H73         0.2480    3.2130   -2.5110 hc        1 MOL      0.003414
    171 H74        -1.4510    2.5460   -2.3850 hc        1 MOL      0.003414
    172 H75         0.1610    1.1120   -1.1710 hc        1 MOL     -0.134316
    173 H76        -1.1180    1.7400   -0.0790 hc        1 MOL     -0.134316
    174 N15        -2.7720    5.4660   -2.8760 n         1 MOL     -0.183646
    175 C58        -3.4570    6.3580   -3.7730 c3        1 MOL     -0.326959
    176 H77        -4.3480    5.8660   -4.1640 h1        1 MOL      0.123599
    177 H78        -3.7470    7.2610   -3.2360 h1        1 MOL      0.123599
    178 H79        -2.7960    6.6220   -4.5980 h1        1 MOL      0.123599
    179 H80        -3.3870    4.8280   -2.3960 hn        1 MOL      0.178758
    180 Ca1         4.1420    1.7070    1.6700 Ca        1 MOL      1.789709
    181 O27         5.6560   -0.0150    3.0910 oh        1 MOL     -0.952677
    182 O28         2.8990    3.9670    2.0230 oh        1 MOL     -0.952677
    183 H81         6.4580   -0.3460    2.6970 ho        1 MOL      0.444402
    184 H82         2.8440    4.8840    2.2740 ho        1 MOL      0.444402
    185 H83         5.5210   -0.5610    3.8620 ho        1 MOL      0.444402
    186 H84         2.2040    3.8490    1.3780 ho        1 MOL      0.444402
    187 O29         2.1490    0.9240    3.4190 oh        1 MOL     -0.952677
    188 H85         1.3070    1.2360    3.0890 ho        1 MOL      0.444402
    189 H86         2.0670    0.9760    4.3720 ho        1 MOL      0.444402
@<TRIPOS>BOND
     1    1    2 1   
     2    1    4 1   
     3    1    5 1   
     4    1    6 1   
     5    2    3 2   
     6    2    7 1   
     7    7    8 1   
     8    7   15 1   
     9    8    9 1   
    10    8   11 1   
    11    8   16 1   
    12    9   10 2   
    13    9   19 1   
    14   11   12 1   
    15   11   17 1   
    16   11   18 1   
    17   12   13 1   
    18   12   14 1   
    19   19   20 1   
    20   19   27 1   
    21   20   21 1   
    22   20   23 1   
    23   20   28 1   
    24   21   22 2   
    25   21   38 1   
    26   23   24 1   
    27   23   25 1   
    28   23   29 1   
    29   24   26 1   
    30   24   30 1   
    31   24   31 1   
    32   25   32 1   
    33   25   33 1   
    34   25   34 1   
    35   26   35 1   
    36   26   36 1   
    37   26   37 1   
    38   38   39 1   
    39   38   46 1   
    40   39   40 1   
    41   39   42 1   
    42   39   47 1   
    43   40   41 2   
    44   40   50 1   
    45   42   43 1   
    46   42   48 1   
    47   42   49 1   
    48   43   44 1   
    49   43   45 1   
    50   50   51 1   
    51   50   54 1   
    52   51   52 1   
    53   51   55 1   
    54   51   56 1   
    55   52   53 2   
    56   52   57 1   
    57   57   58 1   
    58   57   65 1   
    59   58   59 1   
    60   58   61 1   
    61   58   66 1   
    62   59   60 2   
    63   59   69 1   
    64   61   62 1   
    65   61   67 1   
    66   61   68 1   
    67   62   63 1   
    68   62   64 1   
    69   69   70 1   
    70   69   73 1   
    71   70   71 1   
    72   70   74 1   
    73   70   75 1   
    74   71   72 2   
    75   71   76 1   
    76   76   77 1   
    77   76   85 1   
    78   77   78 1   
    79   77   80 1   
    80   77   86 1   
    81   78   79 2   
    82   78   93 1   
    83   80   81 1   
    84   80   87 1   
    85   80   88 1   
    86   81   82 1   
    87   81   89 1   
    88   81   90 1   
    89   82   83 1   
    90   82   84 2   
    91   83   91 1   
    92   83   92 1   
    93   93   94 1   
    94   93  100 1   
    95   94   95 1   
    96   94   97 1   
    97   94  101 1   
    98   95   96 2   
    99   95  109 1   
   100   97   98 1   
   101   97   99 1   
   102   97  102 1   
   103   98  103 1   
   104   98  104 1   
   105   98  105 1   
   106   99  106 1   
   107   99  107 1   
   108   99  108 1   
   109  109  110 1   
   110  109  117 1   
   111  110  111 1   
   112  110  113 1   
   113  110  118 1   
   114  111  112 2   
   115  111  123 1   
   116  113  114 1   
   117  113  119 1   
   118  113  120 1   
   119  114  115 1   
   120  114  116 2   
   121  115  121 1   
   122  115  122 1   
   123  123  124 1   
   124  123  135 1   
   125  124  125 1   
   126  124  127 1   
   127  124  136 1   
   128  125  126 2   
   129  125  144 1   
   130  127  128 1   
   131  127  137 1   
   132  127  138 1   
   133  128  129 ar  
   134  128  130 ar  
   135  129  131 ar  
   136  129  139 1   
   137  130  132 ar  
   138  130  140 1   
   139  131  133 ar  
   140  131  141 1   
   141  132  133 ar  
   142  132  142 1   
   143  133  134 1   
   144  134  143 1   
   145  144  145 1   
   146  144  153 1   
   147  145  146 1   
   148  145  148 1   
   149  145  154 1   
   150  146  147 2   
   151  146  159 1   
   152  148  149 1   
   153  148  155 1   
   154  148  156 1   
   155  149  150 1   
   156  149  157 1   
   157  149  158 1   
   158  150  151 1   
   159  150  152 1   
   160  159  160 1   
   161  159  168 1   
   162  160  161 1   
   163  160  163 1   
   164  160  169 1   
   165  161  162 2   
   166  161  174 1   
   167  163  164 1   
   168  163  170 1   
   169  163  171 1   
   170  164  165 1   
   171  164  172 1   
   172  164  173 1   
   173  165  166 1   
   174  165  167 1   
   175  174  175 1   
   176  174  179 1   
   177  175  176 1   
   178  175  177 1   
   179  175  178 1   
   180  181  183 1   
   181  181  185 1   
   182  182  184 1   
   183  182  186 1   
   184  187  188 1   
   185  187  189 1   
@<TRIPOS>SUBSTRUCTURE
     1 MOL         1 TEMP              0 ****  ****    0 ROOT
