@<TRIPOS>MOLECULE
MOL
  195   189     1     0     0
SMALL
resp


@<TRIPOS>ATOM
      1 C1         -4.5400   -2.6730    3.2840 c3        1 MOL     -0.379510
      2 C2         -3.9460   -3.1160    1.9390 c         1 MOL      0.671162
      3 O1         -3.0790   -2.4290    1.4010 o         1 MOL     -0.520329
      4 H1         -5.5030   -2.1930    3.1140 hc        1 MOL      0.082137
      5 H2         -4.6760   -3.5430    3.9260 hc        1 MOL      0.082137
      6 H3         -3.8630   -1.9670    3.7660 hc        1 MOL      0.082137
      7 N1         -4.3170   -4.2920    1.4300 n         1 MOL     -0.475691
      8 C3         -3.7430   -4.9370    0.2050 c3        1 MOL      0.037076
      9 C4         -2.1940   -5.1260    0.2000 c         1 MOL      0.619755
     10 O2         -1.5320   -4.8920   -0.8180 o         1 MOL     -0.500851
     11 C5         -4.3060   -4.2720   -1.0520 c3        1 MOL     -0.397630
     12 C6         -5.8160   -3.7430   -1.0010 c         1 MOL      0.996242
     13 O3         -6.2060   -2.6660   -1.5190 o         1 MOL     -0.832121
     14 O4         -6.7140   -4.4860   -0.5160 o         1 MOL     -0.832121
     15 H4         -5.1800   -4.6920    1.7610 hn        1 MOL      0.237600
     16 H5         -4.2180   -5.9110    0.0930 h1        1 MOL      0.069574
     17 H6         -4.2180   -4.9160   -1.9290 hc        1 MOL      0.112200
     18 H7         -3.7300   -3.3610   -1.2560 hc        1 MOL      0.112200
     19 N2         -1.6540   -5.3500    1.4030 n         1 MOL     -0.567042
     20 C7         -0.2560   -5.4900    1.6700 c3        1 MOL      0.164832
     21 C8          0.4900   -6.4540    0.6990 c         1 MOL      0.401327
     22 O5         -0.1240   -7.5220    0.3450 o         1 MOL     -0.569580
     23 C9          0.1210   -5.8220    3.1530 c3        1 MOL      0.107823
     24 C10        -0.0150   -7.3000    3.6560 c3        1 MOL      0.151018
     25 C11        -0.6050   -4.8220    4.0900 c3        1 MOL     -0.323767
     26 C12        -1.4330   -7.9480    3.5990 c3        1 MOL     -0.438639
     27 H8         -2.3180   -5.6220    2.1060 hn        1 MOL      0.273962
     28 H9          0.2190   -4.5270    1.4790 h1        1 MOL      0.092567
     29 H10         1.1880   -5.6290    3.2910 hc        1 MOL      0.038490
     30 H11         0.2590   -7.2900    4.7030 hc        1 MOL     -0.014540
     31 H12         0.7090   -8.0300    3.2970 hc        1 MOL     -0.014540
     32 H13        -0.3230   -3.8140    3.8070 hc        1 MOL      0.071746
     33 H14        -1.6770   -4.9580    3.9550 hc        1 MOL      0.071746
     34 H15        -0.2930   -5.0440    5.1120 hc        1 MOL      0.071746
     35 H16        -1.2790   -8.9840    3.8830 hc        1 MOL      0.102205
     36 H17        -2.1390   -7.3230    4.1480 hc        1 MOL      0.102205
     37 H18        -1.7900   -8.0340    2.5740 hc        1 MOL      0.102205
     38 N3          1.6960   -6.2630    0.2350 n         1 MOL     -0.485507
     39 C13         2.6070   -5.1870    0.6120 c3        1 MOL      0.000923
     40 C14         2.8960   -4.1390   -0.4520 c         1 MOL      0.622282
     41 O6          3.3110   -3.0430   -0.1530 o         1 MOL     -0.548189
     42 C15         3.8310   -5.8720    1.2680 c3        1 MOL      0.041020
     43 C16         4.4290   -7.0410    0.4490 c         1 MOL      0.662492
     44 O7          4.0810   -7.1960   -0.7230 o         1 MOL     -0.704232
     45 O8          5.4600   -7.5880    0.9210 o         1 MOL     -0.704232
     46 H19         2.0090   -6.9400   -0.4410 hn        1 MOL      0.325682
     47 H20         2.2300   -4.5690    1.4190 h1        1 MOL      0.010650
     48 H21         3.6340   -6.2760    2.2680 hc        1 MOL     -0.036342
     49 H22         4.5770   -5.1150    1.4980 hc        1 MOL     -0.036342
     50 N4          2.6360   -4.5150   -1.7520 n         1 MOL     -0.481314
     51 C17         2.9880   -3.5930   -2.8040 c3        1 MOL     -0.063974
     52 C18         4.4430   -3.5030   -3.1520 c         1 MOL      0.530830
     53 O9          5.2020   -4.4590   -3.0730 o         1 MOL     -0.487759
     54 H23         2.4000   -5.4630   -1.9980 hn        1 MOL      0.356569
     55 H24         2.6290   -2.6020   -2.5280 h1        1 MOL      0.071422
     56 H25         2.5500   -3.7940   -3.7850 h1        1 MOL      0.071422
     57 N5          4.9220   -2.2460   -3.4360 n         1 MOL     -0.545644
     58 C19         6.3530   -1.9430   -3.5970 c3        1 MOL      0.166478
     59 C20         7.1670   -1.9260   -2.3270 c         1 MOL      0.361722
     60 O10         8.3940   -1.9880   -2.4170 o         1 MOL     -0.527595
     61 C21         6.5950   -0.6300   -4.3200 c3        1 MOL     -0.207873
     62 C22         5.9920    0.7260   -3.8450 c         1 MOL      0.663151
     63 O11         6.2880    1.7890   -4.4300 o         1 MOL     -0.673478
     64 O12         5.4160    0.7000   -2.7110 o         1 MOL     -0.673478
     65 H26         4.2550   -1.4910   -3.4900 hn        1 MOL      0.291859
     66 H27         6.7430   -2.7510   -4.2170 h1        1 MOL      0.058958
     67 H28         6.2460   -0.7360   -5.3510 hc        1 MOL      0.020014
     68 H29         7.6410   -0.3930   -4.4580 hc        1 MOL      0.020014
     69 N6          6.5170   -2.0720   -1.1800 n         1 MOL     -0.123669
     70 C23         7.2560   -1.8680    0.1110 c3        1 MOL     -0.344087
     71 C24         7.6890   -0.4310    0.4160 c         1 MOL      0.588527
     72 O13         8.4470   -0.2040    1.3600 o         1 MOL     -0.602168
     73 H30         5.5130   -2.0100   -1.1520 hn        1 MOL      0.237477
     74 H31         8.1900   -2.4360    0.0920 h1        1 MOL      0.158429
     75 H32         6.6840   -2.1970    0.9830 h1        1 MOL      0.158429
     76 N7          7.2410    0.5930   -0.3540 n         1 MOL     -0.237886
     77 C25         7.6470    2.0060   -0.3450 c3        1 MOL      0.034651
     78 C26         7.5310    2.7930    0.9840 c         1 MOL      0.574325
     79 O14         8.3910    3.6040    1.2710 o         1 MOL     -0.508238
     80 C27         8.9990    2.1570   -1.0400 c3        1 MOL      0.031794
     81 C28         8.9250    1.6340   -2.5730 c3        1 MOL     -0.129563
     82 C29        10.1470    1.9350   -3.3580 c         1 MOL      0.625657
     83 N8         10.6900    0.9730   -4.0800 n         1 MOL     -0.804413
     84 O15        10.5040    3.0690   -3.4550 o         1 MOL     -0.584995
     85 H33         6.6700    0.4020   -1.1590 hn        1 MOL      0.127848
     86 H34         6.8350    2.4210   -0.9310 h1        1 MOL      0.075509
     87 H35         9.7590    1.6230   -0.4860 hc        1 MOL      0.007118
     88 H36         9.3780    3.1720   -1.1440 hc        1 MOL      0.007118
     89 H37         8.0920    2.1770   -3.0300 hc        1 MOL      0.099773
     90 H38         8.8290    0.5510   -2.5160 hc        1 MOL      0.099773
     91 H39        10.1950    0.1230   -4.2600 hn        1 MOL      0.347516
     92 H40        11.4710    1.1990   -4.6740 hn        1 MOL      0.347516
     93 N9          6.5650    2.5330    1.9640 n         1 MOL     -0.636029
     94 C30         6.4090    3.2590    3.2420 c3        1 MOL      0.031019
     95 C31         4.9580    3.7000    3.5480 c         1 MOL      0.679894
     96 O16         4.9230    4.5380    4.4220 o         1 MOL     -0.603736
     97 C32         6.9860    2.4680    4.4430 c3        1 MOL      0.292672
     98 C33         6.2530    1.2310    4.7540 c3        1 MOL     -0.377023
     99 C34         8.4920    2.2350    4.3610 c3        1 MOL     -0.377023
    100 H41         5.9250    1.7850    1.7220 hn        1 MOL      0.271858
    101 H42         6.9560    4.1960    3.2010 h1        1 MOL      0.084863
    102 H43         6.8300    3.0880    5.3230 hc        1 MOL     -0.048679
    103 H44         5.2160    1.4310    5.0150 hc        1 MOL      0.092892
    104 H45         6.1520    0.5970    3.8700 hc        1 MOL      0.092892
    105 H46         6.7640    0.5930    5.4800 hc        1 MOL      0.092892
    106 H47         8.8690    1.8140    5.2940 hc        1 MOL      0.092892
    107 H48         8.7610    1.5080    3.5890 hc        1 MOL      0.092892
    108 H49         9.0960    3.1110    4.1030 hc        1 MOL      0.092892
    109 N10         3.9920    3.2170    2.7770 n         1 MOL     -0.552801
    110 C35         2.5620    3.3610    2.8060 c3        1 MOL      0.307509
    111 C36         1.8980    3.2060    1.3660 c         1 MOL      0.433609
    112 O17         2.5880    3.0320    0.3490 o         1 MOL     -0.508820
    113 C37         2.0660    2.3360    3.9030 c3        1 MOL     -0.300263
    114 C38         0.5540    2.6330    4.3220 c         1 MOL      0.628639
    115 N11         0.1270    2.0220    5.4610 n         1 MOL     -0.802098
    116 O18        -0.1930    3.4000    3.7770 o         1 MOL     -0.462016
    117 H50         4.2190    2.5680    2.0360 hn        1 MOL      0.293594
    118 H51         2.3040    4.3900    3.0600 h1        1 MOL      0.040107
    119 H52         2.5990    2.4620    4.8470 hc        1 MOL      0.083713
    120 H53         2.1860    1.2940    3.6230 hc        1 MOL      0.083713
    121 H54         0.7670    1.3810    5.9120 hn        1 MOL      0.363719
    122 H55        -0.8630    2.0860    5.6860 hn        1 MOL      0.363719
    123 N12         0.5590    3.2550    1.2070 n         1 MOL     -0.426443
    124 C39        -0.1160    3.4460   -0.0570 c3        1 MOL      0.174725
    125 C40        -1.5420    3.9890    0.1820 c         1 MOL      0.521133
    126 O19        -2.1330    3.7950    1.2440 o         1 MOL     -0.544147
    127 C41        -0.2340    2.1260   -0.7960 c3        1 MOL     -0.173268
    128 C42        -1.2900    2.2190   -1.9000 ca        1 MOL     -0.001519
    129 C43        -2.6640    1.8870   -1.6610 ca        1 MOL     -0.165092
    130 C44        -0.8880    2.8680   -3.1110 ca        1 MOL     -0.165092
    131 C45        -3.6020    2.2170   -2.6510 ca        1 MOL     -0.208730
    132 C46        -1.8100    3.2020   -4.0730 ca        1 MOL     -0.208730
    133 C47        -3.1790    2.8620   -3.8740 ca        1 MOL      0.240352
    134 O20        -4.0280    3.2650   -4.8640 oh        1 MOL     -0.465215
    135 H56         0.1440    3.2600    2.1270 hn        1 MOL      0.205681
    136 H57         0.3300    4.1840   -0.7210 h1        1 MOL      0.053885
    137 H58        -0.6070    1.3610   -0.1190 hc        1 MOL      0.102332
    138 H59         0.7420    1.8670   -1.1900 hc        1 MOL      0.102332
    139 H60        -3.0740    1.4850   -0.7390 ha        1 MOL      0.152527
    140 H61         0.1510    2.9810   -3.3880 ha        1 MOL      0.152527
    141 H62        -4.6450    1.9940   -2.4670 ha        1 MOL      0.144960
    142 H63        -1.4870    3.4900   -5.0670 ha        1 MOL      0.144960
    143 H64        -4.8950    2.9680   -4.5760 ho        1 MOL      0.353903
    144 N13        -2.1570    4.8090   -0.6980 n         1 MOL     -0.528200
    145 C48        -3.3380    5.6140   -0.4270 c3        1 MOL      0.217309
    146 C49        -4.5520    5.3710   -1.4530 c         1 MOL      0.559416
    147 O21        -4.6510    6.0850   -2.4820 o         1 MOL     -0.543199
    148 C50        -2.8200    7.0960   -0.5240 c3        1 MOL      0.185354
    149 C51        -3.8050    8.0430    0.1790 c3        1 MOL     -0.250856
    150 C52        -3.4780    9.4980   -0.1020 c         1 MOL      0.696609
    151 O22        -2.7230   10.1820    0.6240 o         1 MOL     -0.673465
    152 O23        -3.9610   10.0040   -1.1150 o         1 MOL     -0.673465
    153 H65        -1.6250    5.0350   -1.5230 hn        1 MOL      0.254571
    154 H66        -3.7460    5.4330    0.5720 h1        1 MOL      0.064367
    155 H67        -2.8300    7.3600   -1.5760 hc        1 MOL     -0.031463
    156 H68        -1.8130    7.2010   -0.1100 hc        1 MOL     -0.031463
    157 H69        -3.7940    7.8060    1.2440 hc        1 MOL      0.033051
    158 H70        -4.8020    7.8750   -0.2260 hc        1 MOL      0.033051
    159 N14        -5.5980    4.6010   -1.1150 n         1 MOL     -0.516789
    160 C53        -5.7900    3.6000   -0.0310 c3        1 MOL     -0.023264
    161 C54        -5.6670    4.2510    1.3510 c         1 MOL      0.469972
    162 O24        -6.3600    5.2360    1.5530 o         1 MOL     -0.538809
    163 C55        -7.1010    2.8190   -0.1500 c3        1 MOL      0.163249
    164 C56        -7.2140    1.5750   -1.0930 c3        1 MOL     -0.090834
    165 C57        -8.5730    0.9340   -1.0310 c         1 MOL      0.594601
    166 O25        -8.6090   -0.3180   -1.1140 o         1 MOL     -0.687114
    167 O26        -9.6110    1.6140   -1.1230 o         1 MOL     -0.687114
    168 H71        -6.3740    4.7750   -1.7540 hn        1 MOL      0.309831
    169 H72        -4.9340    2.9260   -0.0200 h1        1 MOL      0.001465
    170 H73        -7.8350    3.5910   -0.3520 hc        1 MOL     -0.026047
    171 H74        -7.3900    2.4020    0.8190 hc        1 MOL     -0.026047
    172 H75        -6.3510    0.9310   -0.9440 hc        1 MOL      0.023137
    173 H76        -7.0060    1.8990   -2.1100 hc        1 MOL      0.023137
    174 N15        -4.8890    3.6660    2.2470 n         1 MOL     -0.154552
    175 C58        -4.7620    3.8590    3.7120 c3        1 MOL     -0.503596
    176 H77        -3.8790    3.3300    4.0730 h1        1 MOL      0.173088
    177 H78        -4.6630    4.9230    3.9320 h1        1 MOL      0.173088
    178 H79        -5.6480    3.4660    4.2090 h1        1 MOL      0.173088
    179 H80        -4.5020    2.7640    1.9830 hn        1 MOL      0.224146
    180 Ca1        -8.7700   -2.9810   -0.7060 Ca        1 MOL      1.772551
    181 O27       -11.1450   -2.1990   -1.7740 oh        1 MOL     -0.873809
    182 H81       -12.0810   -2.2000   -1.5540 ho        1 MOL      0.409796
    183 H82       -11.0540   -1.5310   -2.4480 ho        1 MOL      0.409796
    184 O28        -8.5040   -3.4990   -3.3560 oh        1 MOL     -0.873809
    185 H83        -7.9740   -2.8650   -3.8360 ho        1 MOL      0.409796
    186 H84        -9.2390   -3.6860   -3.9360 ho        1 MOL      0.409796
    187 O29       -10.5420   -1.8840    1.0410 oh        1 MOL     -0.873809
    188 H85       -11.0140   -1.1850    0.5980 ho        1 MOL      0.409796
    189 H86       -10.1710   -1.4800    1.8270 ho        1 MOL      0.409796
    190 O30       -10.0460   -5.2680   -1.2130 oh        1 MOL     -0.873809
    191 H87        -9.7730   -6.1330   -1.4990 ho        1 MOL      0.409796
    192 H88       -10.9290   -5.1650   -1.5460 ho        1 MOL      0.409796
    193 O31        -7.4760   -1.7450    1.1870 oh        1 MOL     -0.873809
    194 H89        -7.6800   -1.6800    2.1110 ho        1 MOL      0.409796
    195 H90        -6.9420   -0.9720    0.9980 ho        1 MOL      0.409796
@<TRIPOS>BOND
     1    1    2 1   
     2    1    4 1   
     3    1    5 1   
     4    1    6 1   
     5    2    3 2   
     6    2    7 1   
     7    7    8 1   
     8    7   15 1   
     9    8    9 1   
    10    8   11 1   
    11    8   16 1   
    12    9   10 2   
    13    9   19 1   
    14   11   12 1   
    15   11   17 1   
    16   11   18 1   
    17   12   13 1   
    18   12   14 1   
    19   19   20 1   
    20   19   27 1   
    21   20   21 1   
    22   20   23 1   
    23   20   28 1   
    24   21   22 2   
    25   21   38 1   
    26   23   24 1   
    27   23   25 1   
    28   23   29 1   
    29   24   26 1   
    30   24   30 1   
    31   24   31 1   
    32   25   32 1   
    33   25   33 1   
    34   25   34 1   
    35   26   35 1   
    36   26   36 1   
    37   26   37 1   
    38   38   39 1   
    39   38   46 1   
    40   39   40 1   
    41   39   42 1   
    42   39   47 1   
    43   40   41 2   
    44   40   50 1   
    45   42   43 1   
    46   42   48 1   
    47   42   49 1   
    48   43   44 1   
    49   43   45 1   
    50   50   51 1   
    51   50   54 1   
    52   51   52 1   
    53   51   55 1   
    54   51   56 1   
    55   52   53 2   
    56   52   57 1   
    57   57   58 1   
    58   57   65 1   
    59   58   59 1   
    60   58   61 1   
    61   58   66 1   
    62   59   60 2   
    63   59   69 1   
    64   61   62 1   
    65   61   67 1   
    66   61   68 1   
    67   62   63 1   
    68   62   64 1   
    69   69   70 1   
    70   69   73 1   
    71   70   71 1   
    72   70   74 1   
    73   70   75 1   
    74   71   72 2   
    75   71   76 1   
    76   76   77 1   
    77   76   85 1   
    78   77   78 1   
    79   77   80 1   
    80   77   86 1   
    81   78   79 2   
    82   78   93 1   
    83   80   81 1   
    84   80   87 1   
    85   80   88 1   
    86   81   82 1   
    87   81   89 1   
    88   81   90 1   
    89   82   83 1   
    90   82   84 2   
    91   83   91 1   
    92   83   92 1   
    93   93   94 1   
    94   93  100 1   
    95   94   95 1   
    96   94   97 1   
    97   94  101 1   
    98   95   96 2   
    99   95  109 1   
   100   97   98 1   
   101   97   99 1   
   102   97  102 1   
   103   98  103 1   
   104   98  104 1   
   105   98  105 1   
   106   99  106 1   
   107   99  107 1   
   108   99  108 1   
   109  109  110 1   
   110  109  117 1   
   111  110  111 1   
   112  110  113 1   
   113  110  118 1   
   114  111  112 2   
   115  111  123 1   
   116  113  114 1   
   117  113  119 1   
   118  113  120 1   
   119  114  115 1   
   120  114  116 2   
   121  115  121 1   
   122  115  122 1   
   123  123  124 1   
   124  123  135 1   
   125  124  125 1   
   126  124  127 1   
   127  124  136 1   
   128  125  126 2   
   129  125  144 1   
   130  127  128 1   
   131  127  137 1   
   132  127  138 1   
   133  128  129 ar  
   134  128  130 ar  
   135  129  131 ar  
   136  129  139 1   
   137  130  132 ar  
   138  130  140 1   
   139  131  133 ar  
   140  131  141 1   
   141  132  133 ar  
   142  132  142 1   
   143  133  134 1   
   144  134  143 1   
   145  144  145 1   
   146  144  153 1   
   147  145  146 1   
   148  145  148 1   
   149  145  154 1   
   150  146  147 2   
   151  146  159 1   
   152  148  149 1   
   153  148  155 1   
   154  148  156 1   
   155  149  150 1   
   156  149  157 1   
   157  149  158 1   
   158  150  151 1   
   159  150  152 1   
   160  159  160 1   
   161  159  168 1   
   162  160  161 1   
   163  160  163 1   
   164  160  169 1   
   165  161  162 2   
   166  161  174 1   
   167  163  164 1   
   168  163  170 1   
   169  163  171 1   
   170  164  165 1   
   171  164  172 1   
   172  164  173 1   
   173  165  166 1   
   174  165  167 1   
   175  174  175 1   
   176  174  179 1   
   177  175  176 1   
   178  175  177 1   
   179  175  178 1   
   180  181  182 1   
   181  181  183 1   
   182  184  185 1   
   183  184  186 1   
   184  187  188 1   
   185  187  189 1   
   186  190  191 1   
   187  190  192 1   
   188  193  194 1   
   189  193  195 1   
@<TRIPOS>SUBSTRUCTURE
     1 MOL         1 TEMP              0 ****  ****    0 ROOT
