@<TRIPOS>MOLECULE
MOL
  192   187     1     0     0
SMALL
resp


@<TRIPOS>ATOM
      1 C1          4.1200    4.3280   -3.0350 c3        1 MOL     -0.468434
      2 C2          5.0360    3.5630   -2.0130 c         1 MOL      0.832374
      3 O1          4.6390    3.3100   -0.8220 o         1 MOL     -0.677247
      4 H1          4.5580    4.2670   -4.0310 hc        1 MOL      0.118100
      5 H2          3.1290    3.8730   -3.0460 hc        1 MOL      0.118100
      6 H3          4.0370    5.3730   -2.7380 hc        1 MOL      0.118100
      7 N1          6.1730    3.0790   -2.5180 n         1 MOL     -0.742260
      8 C3          7.0600    2.0680   -1.9360 c3        1 MOL      0.451952
      9 C4          6.2080    0.8010   -1.5740 c         1 MOL      0.212160
     10 O2          5.9160    0.5210   -0.3950 o         1 MOL     -0.617526
     11 C5          8.0460    2.6300   -0.8630 c3        1 MOL     -0.074676
     12 C6          7.5020    3.5520    0.1850 c         1 MOL      0.743623
     13 O3          6.7870    3.0760    1.0880 o         1 MOL     -0.725896
     14 O4          7.8370    4.7170    0.2570 o         1 MOL     -0.725896
     15 H4          6.2520    3.1840   -3.5210 hn        1 MOL      0.325552
     16 H5          7.7780    1.7600   -2.6990 h1        1 MOL     -0.016664
     17 H6          8.7570    3.2160   -1.4560 hc        1 MOL     -0.011141
     18 H7          8.5320    1.7580   -0.4210 hc        1 MOL     -0.011141
     19 N2          5.6340    0.2110   -2.6020 n         1 MOL     -0.277842
     20 C7          4.9200   -1.0970   -2.8000 c3        1 MOL      0.017599
     21 C8          5.7070   -2.3100   -2.3120 c         1 MOL      0.356824
     22 O5          5.8540   -3.2620   -3.0890 o         1 MOL     -0.542901
     23 C9          3.4790   -1.0350   -2.3270 c3        1 MOL      0.451340
     24 C10         2.4570   -2.2060   -2.7770 c3        1 MOL     -0.015752
     25 C11         2.7280    0.3370   -2.6470 c3        1 MOL     -0.548733
     26 C12         2.3990   -2.5350   -4.2800 c3        1 MOL     -0.402622
     27 H8          5.8280    0.7320   -3.4480 hn        1 MOL      0.216960
     28 H9          4.9010   -1.1270   -3.8880 h1        1 MOL      0.036092
     29 H10         3.6170   -0.9830   -1.2510 hc        1 MOL     -0.218206
     30 H11         1.4280   -2.0070   -2.4590 hc        1 MOL      0.085917
     31 H12         2.7870   -3.1200   -2.2620 hc        1 MOL      0.085917
     32 H13         1.6910    0.2640   -2.3170 hc        1 MOL      0.112743
     33 H14         3.2160    1.0670   -2.0010 hc        1 MOL      0.112743
     34 H15         2.7490    0.5960   -3.7130 hc        1 MOL      0.112743
     35 H16         2.2610   -1.7140   -4.9860 hc        1 MOL      0.083626
     36 H17         3.3260   -3.0620   -4.5160 hc        1 MOL      0.083626
     37 H18         1.5860   -3.2640   -4.3390 hc        1 MOL      0.083626
     38 N3          6.2180   -2.2540   -1.0800 n         1 MOL     -0.079789
     39 C13         7.0620   -3.2520   -0.4520 c3        1 MOL     -0.046500
     40 C14         6.3020   -4.6030   -0.3320 c         1 MOL      0.604814
     41 O6          6.9710   -5.6210   -0.5200 o         1 MOL     -0.598486
     42 C15         7.4690   -2.7320    0.9130 c3        1 MOL     -0.178124
     43 C16         8.4000   -1.4710    0.8720 c         1 MOL      0.719633
     44 O7          8.5300   -0.8630    1.9380 o         1 MOL     -0.710423
     45 O8          9.0190   -1.1470   -0.2030 o         1 MOL     -0.710423
     46 H19         5.9150   -1.3980   -0.6280 hn        1 MOL      0.209818
     47 H20         7.9580   -3.4450   -1.0440 h1        1 MOL      0.069125
     48 H21         8.1000   -3.4840    1.3810 hc        1 MOL      0.067570
     49 H22         6.6040   -2.4290    1.4900 hc        1 MOL      0.067570
     50 N4          4.9730   -4.7180   -0.1200 n         1 MOL     -0.544646
     51 C17         3.9750   -3.7470    0.4340 c3        1 MOL      0.286283
     52 C18         2.8480   -4.4150    1.2440 c         1 MOL      0.676018
     53 O9          2.5470   -5.5560    0.9360 o         1 MOL     -0.612694
     54 H23         4.6030   -5.6650   -0.0550 hn        1 MOL      0.282979
     55 H24         3.5940   -3.2120   -0.4300 h1        1 MOL     -0.082440
     56 H25         4.5500   -3.0310    1.0240 h1        1 MOL     -0.082440
     57 N5          2.1490   -3.6860    2.0620 n         1 MOL     -0.485881
     58 C19         2.4910   -2.3240    2.6080 c3        1 MOL      0.119755
     59 C20         2.4900   -1.1580    1.5410 c         1 MOL      0.362296
     60 O10         3.6030   -0.7340    1.2730 o         1 MOL     -0.320750
     61 C21         3.7260   -2.2630    3.5030 c3        1 MOL     -0.619514
     62 C22         3.8860   -3.4340    4.3650 c         1 MOL      0.850880
     63 O11         3.2650   -3.5600    5.4860 o         1 MOL     -0.751518
     64 O12         4.6770   -4.3130    3.9840 o         1 MOL     -0.751518
     65 H26         1.4000   -4.0980    2.6000 hn        1 MOL      0.290815
     66 H27         1.7680   -2.1240    3.4080 h1        1 MOL      0.067928
     67 H28         3.5720   -1.4410    4.2020 hc        1 MOL      0.153764
     68 H29         4.6160   -2.1200    2.8880 hc        1 MOL      0.153764
     69 N6          1.4250   -0.6370    0.9070 n         1 MOL     -0.159585
     70 C23         0.0630   -1.0040    1.0760 c3        1 MOL     -0.111255
     71 C24        -0.2900   -2.3430    0.3420 c         1 MOL      0.636164
     72 O13         0.5140   -2.8800   -0.4010 o         1 MOL     -0.543301
     73 H30         1.6050    0.1440    0.2840 hn        1 MOL      0.152606
     74 H31        -0.5680   -0.1990    0.6930 h1        1 MOL      0.042124
     75 H32        -0.1050   -1.0570    2.1480 h1        1 MOL      0.042124
     76 N7         -1.4110   -2.8720    0.6230 n         1 MOL     -0.563313
     77 C25        -1.9070   -4.0540   -0.0460 c3        1 MOL      0.010932
     78 C26        -2.4700   -3.8040   -1.4850 c         1 MOL      0.319895
     79 O14        -2.5030   -4.6740   -2.3490 o         1 MOL     -0.497399
     80 C27        -3.1210   -4.6640    0.7510 c3        1 MOL      0.173963
     81 C28        -3.7370   -6.0240    0.2970 c3        1 MOL     -0.392872
     82 C29        -4.8820   -6.4040    1.1970 c         1 MOL      0.728182
     83 N8         -5.6860   -7.4180    0.8960 n         1 MOL     -0.807166
     84 O15        -5.1490   -5.6610    2.1450 o         1 MOL     -0.574314
     85 H33        -2.0660   -2.3620    1.1940 hn        1 MOL      0.291213
     86 H34        -1.1090   -4.7970   -0.1200 h1        1 MOL      0.154797
     87 H35        -3.9530   -3.9530    0.8290 hc        1 MOL      0.004385
     88 H36        -2.8950   -4.7610    1.8150 hc        1 MOL      0.004385
     89 H37        -2.9900   -6.8130    0.2510 hc        1 MOL      0.113525
     90 H38        -4.2260   -5.8270   -0.6550 hc        1 MOL      0.113525
     91 H39        -5.3830   -8.1540    0.2760 hn        1 MOL      0.354786
     92 H40        -6.5010   -7.6320    1.4490 hn        1 MOL      0.354786
     93 N9         -2.9560   -2.5940   -1.7830 n         1 MOL     -0.137356
     94 C30        -3.3240   -1.9800   -3.1010 c3        1 MOL     -0.193596
     95 C31        -4.7010   -1.2280   -3.1120 c         1 MOL      0.452720
     96 O16        -5.1340   -0.6860   -4.1240 o         1 MOL     -0.511935
     97 C32        -2.1540   -1.0020   -3.6230 c3        1 MOL      0.158222
     98 C33        -0.8950   -1.8140   -4.1520 c3        1 MOL     -0.230217
     99 C34        -1.6250    0.0550   -2.6420 c3        1 MOL     -0.230217
    100 H41        -2.8620   -1.9180   -1.0320 hn        1 MOL      0.185601
    101 H42        -3.4380   -2.8260   -3.7750 h1        1 MOL      0.155612
    102 H43        -2.6010   -0.5020   -4.4810 hc        1 MOL      0.010162
    103 H44        -0.1030   -1.1440   -4.4890 hc        1 MOL      0.068126
    104 H45        -0.5530   -2.4220   -3.3120 hc        1 MOL      0.068126
    105 H46        -1.1170   -2.5320   -4.9340 hc        1 MOL      0.068126
    106 H47        -0.8360    0.7190   -3.0080 hc        1 MOL      0.068126
    107 H48        -2.4330    0.7310   -2.3920 hc        1 MOL      0.068126
    108 H49        -1.3160   -0.4650   -1.7400 hc        1 MOL      0.068126
    109 N10        -5.3920   -1.2200   -1.9710 n         1 MOL     -0.377707
    110 C35        -6.8230   -0.9570   -1.8820 c3        1 MOL      0.125126
    111 C36        -7.0400    0.4070   -1.1820 c         1 MOL      0.502484
    112 O17        -8.0570    1.0680   -1.4310 o         1 MOL     -0.538079
    113 C37        -7.5570   -2.0960   -1.1230 c3        1 MOL     -0.145030
    114 C38        -7.3680   -3.3530   -1.8460 c         1 MOL      0.588052
    115 N11        -7.7450   -3.3330   -3.0970 n         1 MOL     -0.716889
    116 O18        -7.0960   -4.3700   -1.2940 o         1 MOL     -0.518531
    117 H50        -4.8270   -1.6840   -1.2770 hn        1 MOL      0.222352
    118 H51        -7.3400   -0.9170   -2.8370 h1        1 MOL      0.041034
    119 H52        -8.6310   -1.9130   -1.1410 hc        1 MOL      0.056245
    120 H53        -7.1630   -2.1820   -0.0990 hc        1 MOL      0.056245
    121 H54        -7.9770   -2.4850   -3.6020 hn        1 MOL      0.339807
    122 H55        -7.8970   -4.2230   -3.5620 hn        1 MOL      0.339807
    123 N12        -6.1050    0.8000   -0.3020 n         1 MOL     -0.419634
    124 C39        -6.1850    1.9900    0.5830 c3        1 MOL      0.284499
    125 C40        -4.9250    2.9380    0.6050 c         1 MOL      0.314659
    126 O19        -3.7800    2.4180    0.6770 o         1 MOL     -0.487896
    127 C41        -6.6730    1.4740    1.9420 c3        1 MOL     -0.022240
    128 C42        -7.8330    0.6230    2.0290 ca        1 MOL     -0.090900
    129 C43        -9.0520    1.1060    1.6100 ca        1 MOL     -0.039808
    130 C44        -7.7430   -0.7530    2.4180 ca        1 MOL     -0.039808
    131 C45       -10.1900    0.3040    1.5130 ca        1 MOL     -0.288040
    132 C46        -8.8760   -1.5370    2.4970 ca        1 MOL     -0.288040
    133 C47       -10.1390   -1.0090    2.0200 ca        1 MOL      0.320380
    134 O20       -11.3210   -1.6770    2.2260 oh        1 MOL     -0.493525
    135 H56        -5.2900    0.2470   -0.0910 hn        1 MOL      0.236295
    136 H57        -7.0190    2.4750    0.0830 h1        1 MOL     -0.023613
    137 H58        -6.9420    2.2940    2.6050 hc        1 MOL      0.037283
    138 H59        -5.7880    1.0140    2.3740 hc        1 MOL      0.037283
    139 H60        -9.1710    2.1690    1.4230 ha        1 MOL      0.105979
    140 H61        -6.7810   -0.9930    2.8380 ha        1 MOL      0.105979
    141 H62       -11.0950    0.7300    1.1120 ha        1 MOL      0.150640
    142 H63        -8.8700   -2.4590    3.0570 ha        1 MOL      0.150640
    143 H64       -11.0720   -2.5990    2.3480 ho        1 MOL      0.357545
    144 N13        -5.1920    4.2140    0.4680 n         1 MOL     -0.434513
    145 C48        -4.2440    5.3560    0.8000 c3        1 MOL     -0.089080
    146 C49        -2.8250    5.4940    0.1440 c         1 MOL      0.620363
    147 O21        -2.2250    6.5720    0.1390 o         1 MOL     -0.558544
    148 C50        -4.1870    5.5220    2.3160 c3        1 MOL      0.091127
    149 C51        -3.2740    4.5340    2.9600 c3        1 MOL     -0.102808
    150 C52        -3.2380    4.7850    4.4520 c         1 MOL      0.661164
    151 O22        -4.2490    4.4950    5.1420 o         1 MOL     -0.727303
    152 O23        -2.2200    5.3640    4.9100 o         1 MOL     -0.727303
    153 H65        -6.1610    4.4450    0.3020 hn        1 MOL      0.322987
    154 H66        -4.7710    6.2550    0.5140 h1        1 MOL      0.062650
    155 H67        -5.1720    5.2320    2.6770 hc        1 MOL     -0.003694
    156 H68        -3.9610    6.5450    2.6080 hc        1 MOL     -0.003694
    157 H69        -2.2830    4.5330    2.5150 hc        1 MOL      0.025034
    158 H70        -3.7560    3.5520    2.9300 hc        1 MOL      0.025034
    159 N14        -2.3700    4.5030   -0.6280 n         1 MOL     -0.380423
    160 C53        -1.2340    4.6430   -1.5440 c3        1 MOL     -0.273376
    161 C54        -1.4870    5.3870   -2.8750 c         1 MOL      0.510233
    162 O24        -0.5680    5.4910   -3.6830 o         1 MOL     -0.529257
    163 C55        -0.6270    3.2330   -1.6560 c3        1 MOL     -0.040577
    164 C56        -0.1970    2.5520   -0.3530 c3        1 MOL      0.276258
    165 C57         1.1340    3.0280    0.2300 c         1 MOL      0.702133
    166 O25         2.0340    2.1480    0.4070 o         1 MOL     -0.683746
    167 O26         1.1800    4.2100    0.6870 o         1 MOL     -0.683746
    168 H71        -2.8940    3.6390   -0.5910 hn        1 MOL      0.265614
    169 H72        -0.4480    5.1980   -1.0370 h1        1 MOL      0.230055
    170 H73         0.2990    3.3690   -2.2160 hc        1 MOL      0.031313
    171 H74        -1.3310    2.6540   -2.2420 hc        1 MOL      0.031313
    172 H75        -0.0610    1.5120   -0.6440 hc        1 MOL     -0.098240
    173 H76        -0.9540    2.6370    0.4330 hc        1 MOL     -0.098240
    174 N15        -2.6640    5.9260   -3.1690 n         1 MOL     -0.227104
    175 C58        -2.9820    6.7700   -4.2400 c3        1 MOL     -0.099159
    176 H77        -2.3550    6.5220   -5.0960 h1        1 MOL      0.059163
    177 H78        -4.0300    6.6380   -4.5090 h1        1 MOL      0.059163
    178 H79        -2.8080    7.8060   -3.9520 h1        1 MOL      0.059163
    179 H80        -3.3440    5.8710   -2.4300 hn        1 MOL      0.197733
    180 Ca1         4.4610    1.8220    1.3800 Ca        1 MOL      1.790954
    181 O27         3.4860    4.3080    1.9620 oh        1 MOL     -0.867680
    182 H81         3.3720    5.0370    2.5730 ho        1 MOL      0.415112
    183 H82         2.6580    4.2550    1.4840 ho        1 MOL      0.415112
    184 O28         2.5590    1.3830    3.4180 oh        1 MOL     -0.867680
    185 H83         2.5570    1.0850    4.3250 ho        1 MOL      0.415112
    186 H84         1.6930    1.7830    3.2870 ho        1 MOL      0.415112
    187 O29         5.2060    2.9420    3.8060 oh        1 MOL     -0.867680
    188 H85         6.0970    3.2880    3.8790 ho        1 MOL      0.415112
    189 H86         4.8640    2.9950    4.6990 ho        1 MOL      0.415112
    190 O30         6.0540    0.1700    2.8290 oh        1 MOL     -0.867680
    191 H87         6.3460   -0.7150    2.6030 ho        1 MOL      0.415112
    192 H88         6.8440    0.6230    3.1060 ho        1 MOL      0.415112
@<TRIPOS>BOND
     1    1    2 1   
     2    1    4 1   
     3    1    5 1   
     4    1    6 1   
     5    2    3 2   
     6    2    7 1   
     7    7    8 1   
     8    7   15 1   
     9    8    9 1   
    10    8   11 1   
    11    8   16 1   
    12    9   10 2   
    13    9   19 1   
    14   11   12 1   
    15   11   17 1   
    16   11   18 1   
    17   12   13 1   
    18   12   14 1   
    19   19   20 1   
    20   19   27 1   
    21   20   21 1   
    22   20   23 1   
    23   20   28 1   
    24   21   22 2   
    25   21   38 1   
    26   23   24 1   
    27   23   25 1   
    28   23   29 1   
    29   24   26 1   
    30   24   30 1   
    31   24   31 1   
    32   25   32 1   
    33   25   33 1   
    34   25   34 1   
    35   26   35 1   
    36   26   36 1   
    37   26   37 1   
    38   38   39 1   
    39   38   46 1   
    40   39   40 1   
    41   39   42 1   
    42   39   47 1   
    43   40   41 2   
    44   40   50 1   
    45   42   43 1   
    46   42   48 1   
    47   42   49 1   
    48   43   44 1   
    49   43   45 1   
    50   50   51 1   
    51   50   54 1   
    52   51   52 1   
    53   51   55 1   
    54   51   56 1   
    55   52   53 2   
    56   52   57 1   
    57   57   58 1   
    58   57   65 1   
    59   58   59 1   
    60   58   61 1   
    61   58   66 1   
    62   59   60 2   
    63   59   69 1   
    64   61   62 1   
    65   61   67 1   
    66   61   68 1   
    67   62   63 1   
    68   62   64 1   
    69   69   70 1   
    70   69   73 1   
    71   70   71 1   
    72   70   74 1   
    73   70   75 1   
    74   71   72 2   
    75   71   76 1   
    76   76   77 1   
    77   76   85 1   
    78   77   78 1   
    79   77   80 1   
    80   77   86 1   
    81   78   79 2   
    82   78   93 1   
    83   80   81 1   
    84   80   87 1   
    85   80   88 1   
    86   81   82 1   
    87   81   89 1   
    88   81   90 1   
    89   82   83 1   
    90   82   84 2   
    91   83   91 1   
    92   83   92 1   
    93   93   94 1   
    94   93  100 1   
    95   94   95 1   
    96   94   97 1   
    97   94  101 1   
    98   95   96 2   
    99   95  109 1   
   100   97   98 1   
   101   97   99 1   
   102   97  102 1   
   103   98  103 1   
   104   98  104 1   
   105   98  105 1   
   106   99  106 1   
   107   99  107 1   
   108   99  108 1   
   109  109  110 1   
   110  109  117 1   
   111  110  111 1   
   112  110  113 1   
   113  110  118 1   
   114  111  112 2   
   115  111  123 1   
   116  113  114 1   
   117  113  119 1   
   118  113  120 1   
   119  114  115 1   
   120  114  116 2   
   121  115  121 1   
   122  115  122 1   
   123  123  124 1   
   124  123  135 1   
   125  124  125 1   
   126  124  127 1   
   127  124  136 1   
   128  125  126 2   
   129  125  144 1   
   130  127  128 1   
   131  127  137 1   
   132  127  138 1   
   133  128  129 ar  
   134  128  130 ar  
   135  129  131 ar  
   136  129  139 1   
   137  130  132 ar  
   138  130  140 1   
   139  131  133 ar  
   140  131  141 1   
   141  132  133 ar  
   142  132  142 1   
   143  133  134 1   
   144  134  143 1   
   145  144  145 1   
   146  144  153 1   
   147  145  146 1   
   148  145  148 1   
   149  145  154 1   
   150  146  147 2   
   151  146  159 1   
   152  148  149 1   
   153  148  155 1   
   154  148  156 1   
   155  149  150 1   
   156  149  157 1   
   157  149  158 1   
   158  150  151 1   
   159  150  152 1   
   160  159  160 1   
   161  159  168 1   
   162  160  161 1   
   163  160  163 1   
   164  160  169 1   
   165  161  162 2   
   166  161  174 1   
   167  163  164 1   
   168  163  170 1   
   169  163  171 1   
   170  164  165 1   
   171  164  172 1   
   172  164  173 1   
   173  165  166 1   
   174  165  167 1   
   175  174  175 1   
   176  174  179 1   
   177  175  176 1   
   178  175  177 1   
   179  175  178 1   
   180  181  182 1   
   181  181  183 1   
   182  184  185 1   
   183  184  186 1   
   184  187  188 1   
   185  187  189 1   
   186  190  191 1   
   187  190  192 1   
@<TRIPOS>SUBSTRUCTURE
     1 MOL         1 TEMP              0 ****  ****    0 ROOT
