@<TRIPOS>MOLECULE
MOL
  179   176     1     0     0
SMALL
resp


@<TRIPOS>ATOM
      1 C1          0.4850   -4.2330    5.7590 c3        1 MOL     -0.389899
      2 C2          0.6260   -3.9840    4.2450 c         1 MOL      0.774498
      3 O1         -0.3230   -4.0130    3.4130 o         1 MOL     -0.599925
      4 H1         -0.5660   -4.3770    6.0070 hc        1 MOL      0.111612
      5 H2          1.0480   -5.1250    6.0360 hc        1 MOL      0.111612
      6 H3          0.8730   -3.3740    6.3070 hc        1 MOL      0.111612
      7 N1          1.8960   -3.7760    3.9060 n         1 MOL     -0.565518
      8 C3          2.2650   -3.4400    2.6010 c3        1 MOL     -0.024403
      9 C4          2.2690   -4.6270    1.5740 c         1 MOL      0.656804
     10 O2          2.7800   -5.6870    1.9030 o         1 MOL     -0.562428
     11 C5          3.5670   -2.6950    2.5360 c3        1 MOL     -0.310493
     12 C6          3.6900   -1.8030    1.3160 c         1 MOL      0.699951
     13 O3          4.4080   -0.7590    1.3860 o         1 MOL     -0.735540
     14 O4          3.1180   -2.0850    0.2510 o         1 MOL     -0.735540
     15 H4          2.5770   -3.5960    4.6350 hn        1 MOL      0.330882
     16 H5          1.5120   -2.7300    2.2550 h1        1 MOL      0.073568
     17 H6          4.3770   -3.4200    2.6400 hc        1 MOL      0.133477
     18 H7          3.7520   -1.9790    3.3320 hc        1 MOL      0.133477
     19 N2          1.7400   -4.4780    0.3530 n         1 MOL     -0.458793
     20 C7          1.9470   -5.4830   -0.7410 c3        1 MOL     -0.017586
     21 C8          3.1900   -5.2880   -1.5870 c         1 MOL      0.635819
     22 O5          3.5630   -6.2760   -2.1820 o         1 MOL     -0.576031
     23 C9          0.6990   -5.3600   -1.5840 c3        1 MOL     -0.043536
     24 C10         0.2710   -3.9470   -2.1440 c3        1 MOL      0.334157
     25 C11        -0.9960   -4.0360   -3.0060 c3        1 MOL      0.008565
     26 C12        -1.2590   -2.6640   -3.6600 c3        1 MOL      0.097256
     27 N3         -2.2080   -2.8340   -4.7970 n4        1 MOL     -0.433382
     28 H8          1.4040   -3.5570    0.1440 hn        1 MOL      0.307019
     29 H9          2.0100   -6.4830   -0.3180 h1        1 MOL      0.134238
     30 H10        -0.1630   -5.6870   -1.0060 hc        1 MOL     -0.003721
     31 H11         0.7640   -6.0250   -2.4500 hc        1 MOL     -0.003721
     32 H12         1.0580   -3.4370   -2.7040 hc        1 MOL     -0.123135
     33 H13        -0.0330   -3.2980   -1.3330 hc        1 MOL     -0.123135
     34 H14        -1.8260   -4.3690   -2.3720 hc        1 MOL      0.007371
     35 H15        -0.8340   -4.7740   -3.7850 hc        1 MOL      0.007371
     36 H16        -0.3230   -2.4030   -4.1560 hx        1 MOL      0.055501
     37 H17        -1.5330   -1.8980   -2.9270 hx        1 MOL      0.055501
     38 H18        -1.8130   -3.3250   -5.5850 hn        1 MOL      0.301199
     39 H19        -3.0670   -3.2960   -4.5210 hn        1 MOL      0.301199
     40 H20        -2.4990   -1.8900   -5.0050 hn        1 MOL      0.301199
     41 N4          3.9370   -4.2090   -1.4560 n         1 MOL     -0.532929
     42 C13         5.0900   -3.9020   -2.4110 c3        1 MOL      0.045280
     43 C14         6.3520   -3.3410   -1.6960 c         1 MOL      0.438606
     44 O6          7.2980   -2.9980   -2.3430 o         1 MOL     -0.506407
     45 C15         4.6050   -2.9140   -3.4830 c3        1 MOL     -0.199566
     46 C16         4.1420   -1.6030   -2.8530 c         1 MOL      0.637511
     47 O7          2.9360   -1.2080   -2.9450 o         1 MOL     -0.749922
     48 O8          4.8050   -1.1060   -1.9100 o         1 MOL     -0.749922
     49 H21         3.7240   -3.4930   -0.7770 hn        1 MOL      0.304171
     50 H22         5.3930   -4.8020   -2.9590 h1        1 MOL      0.116834
     51 H23         3.8510   -3.3200   -4.1750 hc        1 MOL      0.085377
     52 H24         5.5010   -2.8030   -4.0890 hc        1 MOL      0.085377
     53 N5          6.3690   -3.2850   -0.3790 n         1 MOL     -0.148449
     54 C17         7.4470   -2.8750    0.5020 c3        1 MOL     -0.301515
     55 C18         7.9060   -1.4250    0.5600 c         1 MOL      0.596451
     56 O9          8.9450   -1.1000    1.1540 o         1 MOL     -0.538580
     57 H25         5.5150   -3.3830    0.1450 hn        1 MOL      0.145063
     58 H26         8.2460   -3.5260    0.1610 h1        1 MOL      0.138889
     59 H27         7.1690   -3.1170    1.5330 h1        1 MOL      0.138889
     60 N6          7.1330   -0.4650   -0.0470 n         1 MOL     -0.341449
     61 C19         7.5550    0.9540   -0.0480 c3        1 MOL      0.068312
     62 C20         6.4270    2.0210   -0.0700 c         1 MOL      0.609319
     63 O10         5.3080    1.6740   -0.3230 o         1 MOL     -0.511295
     64 C21         8.4450    1.1420   -1.2320 c3        1 MOL     -0.390604
     65 C22         9.2920    2.5150   -1.2020 c         1 MOL      0.747591
     66 N7          9.2260    3.2690   -2.3100 n         1 MOL     -0.864526
     67 O11         9.8840    2.8690   -0.2230 o         1 MOL     -0.541016
     68 H28         6.2930   -0.7130   -0.5510 hn        1 MOL      0.356521
     69 H29         8.1690    1.2330    0.8110 h1        1 MOL      0.060870
     70 H30         7.8010    1.0220   -2.1070 hc        1 MOL      0.106976
     71 H31         9.2510    0.4120   -1.2200 hc        1 MOL      0.106976
     72 H32         8.8000    2.8930   -3.1440 hn        1 MOL      0.376038
     73 H33         9.7880    4.1050   -2.3700 hn        1 MOL      0.376038
     74 N8          6.6600    3.2950    0.2760 n         1 MOL     -0.548113
     75 C23         5.6810    4.2930   -0.0480 c3        1 MOL      0.106225
     76 C24         4.4900    4.2220    0.8490 c         1 MOL      0.556504
     77 O12         4.6010    3.8640    2.0120 o         1 MOL     -0.485291
     78 H34         7.5780    3.5600    0.6110 hn        1 MOL      0.346024
     79 H35         5.3580    4.1490   -1.0800 h1        1 MOL      0.031023
     80 H36         6.1260    5.2890   -0.0530 h1        1 MOL      0.031023
     81 N9          3.3010    4.5720    0.3340 n         1 MOL     -0.615948
     82 C25         1.9650    4.4010    0.9550 c3        1 MOL      0.251460
     83 C26         1.6400    2.9440    1.3190 c         1 MOL      0.313477
     84 O13         2.4650    2.0620    0.9170 o         1 MOL     -0.451350
     85 C27         0.8760    4.8770   -0.0750 c3        1 MOL     -0.011336
     86 C28         0.8550    6.3870   -0.2580 ca        1 MOL     -0.093578
     87 C29         0.6400    6.8650   -1.5470 ca        1 MOL     -0.026656
     88 C30         0.9980    7.2830    0.8130 ca        1 MOL     -0.026656
     89 C31         0.5580    8.2730   -1.8260 ca        1 MOL     -0.353399
     90 C32         0.7750    8.6670    0.5530 ca        1 MOL     -0.353399
     91 C33         0.6550    9.1870   -0.7750 ca        1 MOL      0.427647
     92 O14         0.5570   10.4900   -1.0690 oh        1 MOL     -0.476365
     93 H37         3.2910    4.6890   -0.6670 hn        1 MOL      0.252696
     94 H38         1.8340    4.9100    1.9110 h1        1 MOL      0.099563
     95 H39        -0.1000    4.4990    0.2240 hc        1 MOL      0.006622
     96 H40         1.0170    4.3580   -1.0260 hc        1 MOL      0.006622
     97 H41         0.4380    6.2050   -2.3870 ha        1 MOL      0.083649
     98 H42         1.1610    6.8230    1.7830 ha        1 MOL      0.083649
     99 H43         0.2820    8.5560   -2.8310 ha        1 MOL      0.175193
    100 H44         0.7500    9.4520    1.3050 ha        1 MOL      0.175193
    101 H45         0.2260   10.6500   -1.9600 ho        1 MOL      0.365225
    102 N10         0.5910    2.7670    2.1630 n         1 MOL     -0.422550
    103 C34         0.1680    1.3980    2.5630 c3        1 MOL      0.071971
    104 C35        -0.1200    0.4450    1.3990 c         1 MOL      0.475679
    105 O15         0.8300    0.0520    0.7510 o         1 MOL     -0.512159
    106 C36         1.1480    0.8400    3.6410 c3        1 MOL      0.275868
    107 C37         0.6880   -0.4840    4.3040 c3        1 MOL     -0.370358
    108 C38         1.4950    1.8250    4.8000 c3        1 MOL     -0.395594
    109 C39        -0.7220   -0.4680    4.9960 c3        1 MOL      0.044078
    110 H46         0.2530    3.6380    2.5420 hn        1 MOL      0.285055
    111 H47        -0.7580    1.6990    3.0530 h1        1 MOL      0.050353
    112 H48         2.1250    0.7050    3.1840 hc        1 MOL      0.042164
    113 H49         1.4440   -0.7390    5.0520 hc        1 MOL      0.105932
    114 H50         0.6510   -1.2360    3.5070 hc        1 MOL      0.105932
    115 H51         2.1210    1.3020    5.5210 hc        1 MOL      0.105855
    116 H52         2.0640    2.6420    4.3500 hc        1 MOL      0.105855
    117 H53         0.6210    2.2350    5.3040 hc        1 MOL      0.105855
    118 H54        -0.9370    0.2330    5.8010 hc        1 MOL      0.000954
    119 H55        -1.4700   -0.3240    4.2150 hc        1 MOL      0.000954
    120 H56        -0.8960   -1.4880    5.3490 hc        1 MOL      0.000954
    121 N11        -1.3520   -0.0680    1.2180 n         1 MOL     -0.635185
    122 C40        -1.7340   -1.0590    0.2080 c3        1 MOL      0.264114
    123 C41        -3.2170   -1.0210   -0.2660 c         1 MOL      0.378762
    124 O16        -3.5670   -1.7140   -1.2310 o         1 MOL     -0.485316
    125 C42        -1.4830   -2.4420    0.9300 c3        1 MOL      0.289434
    126 O17        -2.2170   -2.4970    2.1260 oh        1 MOL     -0.634964
    127 H57        -2.1060    0.2320    1.8170 hn        1 MOL      0.328362
    128 H58        -1.1190   -0.8810   -0.6740 h1        1 MOL      0.031022
    129 H59        -0.4120   -2.5520    1.0970 h1        1 MOL     -0.020044
    130 H60        -1.8990   -3.1890    0.2560 h1        1 MOL     -0.020044
    131 H61        -1.7690   -3.0390    2.7720 ho        1 MOL      0.411327
    132 N12        -4.0980   -0.3220    0.4800 n         1 MOL     -0.509522
    133 C43        -5.5780   -0.3100    0.1870 c3        1 MOL      0.131270
    134 C44        -5.7980    0.2530   -1.2630 c         1 MOL      0.688091
    135 O18        -5.0510    1.0320   -1.7820 o         1 MOL     -0.589260
    136 C45        -6.2810    0.5370    1.2910 c3        1 MOL     -0.256366
    137 H62        -3.7940    0.2940    1.2160 hn        1 MOL      0.307613
    138 H63        -5.8840   -1.3450    0.2890 h1        1 MOL      0.126758
    139 H64        -7.2910    0.7430    0.9410 hc        1 MOL      0.089639
    140 H65        -6.3430    0.0640    2.2700 hc        1 MOL      0.089639
    141 H66        -5.7570    1.4920    1.3240 hc        1 MOL      0.089639
    142 N13        -6.9010   -0.0010   -1.9750 n         1 MOL     -0.695670
    143 C46        -8.1020   -0.7180   -1.5230 c3        1 MOL      0.310481
    144 C47        -9.2840   -0.2230   -2.3180 c         1 MOL      0.491889
    145 O19        -9.0660    0.0670   -3.4590 o         1 MOL     -0.545136
    146 C48        -7.8390   -2.1950   -1.7230 c3        1 MOL     -0.280764
    147 H67        -6.8960    0.3620   -2.9180 hn        1 MOL      0.356742
    148 H68        -8.3930   -0.5110   -0.4930 h1        1 MOL     -0.060426
    149 H69        -7.8830   -2.3880   -2.7900 hc        1 MOL      0.077527
    150 H70        -6.8960   -2.5030   -1.2560 hc        1 MOL      0.077527
    151 H71        -8.6550   -2.7350   -1.2330 hc        1 MOL      0.077527
    152 N14       -10.5070   -0.0960   -1.7970 n         1 MOL     -0.408362
    153 C49       -10.9630   -0.2660   -0.3960 c3        1 MOL     -0.247200
    154 C50       -10.3780    0.8320    0.5140 c         1 MOL      0.575081
    155 O20        -9.9240    0.4770    1.6000 o         1 MOL     -0.572054
    156 C51       -12.4220   -0.1930   -0.5340 c3        1 MOL      0.166279
    157 C52       -13.1520   -0.4050    0.7830 c3        1 MOL     -0.341712
    158 C53       -14.6670   -0.1620    0.6400 c         1 MOL      0.707192
    159 O21       -15.3990   -1.1430    0.3300 o         1 MOL     -0.662421
    160 O22       -15.0980    0.9750    0.6500 o         1 MOL     -0.662421
    161 H72       -11.1050    0.3260   -2.4820 hn        1 MOL      0.258537
    162 H73       -10.7210   -1.2730   -0.0680 h1        1 MOL      0.193451
    163 H74       -12.7730   -1.0140   -1.1680 hc        1 MOL      0.016537
    164 H75       -12.7820    0.7950   -0.8160 hc        1 MOL      0.016537
    165 H76       -12.8810    0.3340    1.5380 hc        1 MOL      0.068037
    166 H77       -12.8830   -1.4160    1.0680 hc        1 MOL      0.068037
    167 N15       -10.0800    2.0100    0.0690 n         1 MOL     -0.245974
    168 C54        -9.4970    3.1400    0.8530 c3        1 MOL     -0.236348
    169 H78        -9.8990    3.1240    1.8650 h1        1 MOL      0.111537
    170 H79        -8.4130    3.0350    0.8900 h1        1 MOL      0.111537
    171 H80        -9.7550    4.0860    0.3750 h1        1 MOL      0.111537
    172 H81       -10.4200    2.3580   -0.8190 hn        1 MOL      0.257110
    173 Ca1         2.9960    0.2980   -0.7970 Ca        1 MOL      1.719888
    174 O23         0.6500    0.8550   -1.9630 oh        1 MOL     -0.817520
    175 H82        -0.0620    1.2620   -1.4620 ho        1 MOL      0.414264
    176 H83         0.2630    0.6910   -2.8170 ho        1 MOL      0.414264
    177 O24         3.2510    2.1810   -2.5510 oh        1 MOL     -0.817520
    178 H84         4.1200    2.5260   -2.7910 ho        1 MOL      0.414264
    179 H85         2.6410    2.7500   -3.0260 ho        1 MOL      0.414264
@<TRIPOS>BOND
     1    1    2 1   
     2    1    4 1   
     3    1    5 1   
     4    1    6 1   
     5    2    3 2   
     6    2    7 1   
     7    7    8 1   
     8    7   15 1   
     9    8    9 1   
    10    8   11 1   
    11    8   16 1   
    12    9   10 2   
    13    9   19 1   
    14   11   12 1   
    15   11   17 1   
    16   11   18 1   
    17   12   13 1   
    18   12   14 1   
    19   19   20 1   
    20   19   28 1   
    21   20   21 1   
    22   20   23 1   
    23   20   29 1   
    24   21   22 2   
    25   21   41 1   
    26   23   24 1   
    27   23   30 1   
    28   23   31 1   
    29   24   25 1   
    30   24   32 1   
    31   24   33 1   
    32   25   26 1   
    33   25   34 1   
    34   25   35 1   
    35   26   27 1   
    36   26   36 1   
    37   26   37 1   
    38   27   38 1   
    39   27   39 1   
    40   27   40 1   
    41   41   42 1   
    42   41   49 1   
    43   42   43 1   
    44   42   45 1   
    45   42   50 1   
    46   43   44 2   
    47   43   53 1   
    48   45   46 1   
    49   45   51 1   
    50   45   52 1   
    51   46   47 1   
    52   46   48 1   
    53   53   54 1   
    54   53   57 1   
    55   54   55 1   
    56   54   58 1   
    57   54   59 1   
    58   55   56 2   
    59   55   60 1   
    60   60   61 1   
    61   60   68 1   
    62   61   62 1   
    63   61   64 1   
    64   61   69 1   
    65   62   63 2   
    66   62   74 1   
    67   64   65 1   
    68   64   70 1   
    69   64   71 1   
    70   65   66 1   
    71   65   67 2   
    72   66   72 1   
    73   66   73 1   
    74   74   75 1   
    75   74   78 1   
    76   75   76 1   
    77   75   79 1   
    78   75   80 1   
    79   76   77 2   
    80   76   81 1   
    81   81   82 1   
    82   81   93 1   
    83   82   83 1   
    84   82   85 1   
    85   82   94 1   
    86   83   84 2   
    87   83  102 1   
    88   85   86 1   
    89   85   95 1   
    90   85   96 1   
    91   86   87 ar  
    92   86   88 ar  
    93   87   89 ar  
    94   87   97 1   
    95   88   90 ar  
    96   88   98 1   
    97   89   91 ar  
    98   89   99 1   
    99   90   91 ar  
   100   90  100 1   
   101   91   92 1   
   102   92  101 1   
   103  102  103 1   
   104  102  110 1   
   105  103  104 1   
   106  103  106 1   
   107  103  111 1   
   108  104  105 2   
   109  104  121 1   
   110  106  107 1   
   111  106  108 1   
   112  106  112 1   
   113  107  109 1   
   114  107  113 1   
   115  107  114 1   
   116  108  115 1   
   117  108  116 1   
   118  108  117 1   
   119  109  118 1   
   120  109  119 1   
   121  109  120 1   
   122  121  122 1   
   123  121  127 1   
   124  122  123 1   
   125  122  125 1   
   126  122  128 1   
   127  123  124 2   
   128  123  132 1   
   129  125  126 1   
   130  125  129 1   
   131  125  130 1   
   132  126  131 1   
   133  132  133 1   
   134  132  137 1   
   135  133  134 1   
   136  133  136 1   
   137  133  138 1   
   138  134  135 2   
   139  134  142 1   
   140  136  139 1   
   141  136  140 1   
   142  136  141 1   
   143  142  143 1   
   144  142  147 1   
   145  143  144 1   
   146  143  146 1   
   147  143  148 1   
   148  144  145 2   
   149  144  152 1   
   150  146  149 1   
   151  146  150 1   
   152  146  151 1   
   153  152  153 1   
   154  152  161 1   
   155  153  154 1   
   156  153  156 1   
   157  153  162 1   
   158  154  155 2   
   159  154  167 1   
   160  156  157 1   
   161  156  163 1   
   162  156  164 1   
   163  157  158 1   
   164  157  165 1   
   165  157  166 1   
   166  158  159 1   
   167  158  160 1   
   168  167  168 1   
   169  167  172 1   
   170  168  169 1   
   171  168  170 1   
   172  168  171 1   
   173  174  175 1   
   174  174  176 1   
   175  177  178 1   
   176  177  179 1   
@<TRIPOS>SUBSTRUCTURE
     1 MOL         1 TEMP              0 ****  ****    0 ROOT
