@<TRIPOS>MOLECULE
MOL
  192   187     1     0     0
SMALL
resp


@<TRIPOS>ATOM
      1 C1         -9.2650   -0.2990   -2.4280 c3        1 MOL     -0.451329
      2 C2         -8.2280   -0.0430   -1.3470 c         1 MOL      0.755000
      3 O1         -7.0310    0.0180   -1.5720 o         1 MOL     -0.642464
      4 H1         -9.5770    0.6500   -2.8630 hc        1 MOL      0.114919
      5 H2         -8.8320   -0.9290   -3.2050 hc        1 MOL      0.114919
      6 H3        -10.1290   -0.7990   -1.9910 hc        1 MOL      0.114919
      7 N1         -8.7060    0.1220   -0.0670 n         1 MOL     -0.485904
      8 C3         -7.9080    0.1220    1.2420 c3        1 MOL     -0.021000
      9 C4         -7.1640   -1.2220    1.4570 c         1 MOL      0.536304
     10 O2         -6.9490   -1.6050    2.5990 o         1 MOL     -0.470176
     11 C5         -8.8610    0.5620    2.3460 c3        1 MOL     -0.179403
     12 C6        -10.1960   -0.1390    2.3930 c         1 MOL      0.724948
     13 O3        -11.1570    0.4050    1.8260 o         1 MOL     -0.651858
     14 O4        -10.3360   -1.2670    2.9860 o         1 MOL     -0.651858
     15 H4         -9.6950    0.0670    0.1260 hn        1 MOL      0.243197
     16 H5         -7.0980    0.8490    1.1650 h1        1 MOL      0.095128
     17 H6         -9.1310    1.6070    2.2050 hc        1 MOL      0.056279
     18 H7         -8.4300    0.3590    3.3300 hc        1 MOL      0.056279
     19 N2         -6.9330   -1.9830    0.4100 n         1 MOL     -0.311118
     20 C7         -6.2700   -3.3420    0.3210 c3        1 MOL     -0.048065
     21 C8         -4.8400   -3.3860    0.9650 c         1 MOL      0.541137
     22 O5         -4.5830   -4.2660    1.7840 o         1 MOL     -0.537272
     23 C9         -6.2590   -3.9210   -1.1350 c3        1 MOL     -0.173691
     24 C10        -7.5080   -4.7300   -1.5600 c3        1 MOL      0.220739
     25 C11        -7.4720   -5.2450   -3.0080 c3        1 MOL     -0.080563
     26 C12        -8.8640   -5.6570   -3.3800 c3        1 MOL      0.273771
     27 N3         -9.0250   -6.2550   -4.7080 n4        1 MOL     -0.390685
     28 H8         -7.0570   -1.5420   -0.4880 hn        1 MOL      0.152768
     29 H9         -6.9320   -3.9160    0.9800 h1        1 MOL      0.107244
     30 H10        -5.4140   -4.6090   -1.2240 hc        1 MOL      0.057880
     31 H11        -6.0670   -3.0820   -1.8190 hc        1 MOL      0.057880
     32 H12        -8.4120   -4.1420   -1.3940 hc        1 MOL     -0.012039
     33 H13        -7.6890   -5.5390   -0.8580 hc        1 MOL     -0.012039
     34 H14        -6.7780   -6.0560   -3.1890 hc        1 MOL      0.009762
     35 H15        -7.3100   -4.3430   -3.6110 hc        1 MOL      0.009762
     36 H16        -9.5420   -4.8120   -3.2720 hx        1 MOL     -0.005430
     37 H17        -9.1900   -6.3230   -2.5820 hx        1 MOL     -0.005430
     38 H18        -8.5730   -7.1540   -4.7900 hn        1 MOL      0.276466
     39 H19       -10.0050   -6.3490   -4.9680 hn        1 MOL      0.276466
     40 H20        -8.6170   -5.4910   -5.2230 hn        1 MOL      0.276466
     41 N4         -3.8380   -2.6130    0.5000 n         1 MOL     -0.424174
     42 C13        -3.8560   -1.4080   -0.3630 c3        1 MOL      0.030880
     43 C14        -3.8900   -0.0830    0.4700 c         1 MOL      0.210517
     44 O6         -3.5680   -0.0120    1.6360 o         1 MOL     -0.351617
     45 C15        -2.5300   -1.3280   -1.2500 c3        1 MOL     -0.110210
     46 C16        -1.2320   -1.7710   -0.5490 c         1 MOL      0.659986
     47 O7         -0.9830   -1.1120    0.4880 o         1 MOL     -0.677277
     48 O8         -0.5220   -2.7620   -0.8790 o         1 MOL     -0.677277
     49 H21        -2.9210   -2.8260    0.8470 hn        1 MOL      0.333972
     50 H22        -4.7640   -1.4270   -0.9720 h1        1 MOL      0.068700
     51 H23        -2.3790   -0.3380   -1.6820 hc        1 MOL      0.019456
     52 H24        -2.7470   -2.0150   -2.0710 hc        1 MOL      0.019456
     53 N5         -4.1420    0.9670   -0.2840 n         1 MOL     -0.069494
     54 C17        -4.1770    2.3540    0.1250 c3        1 MOL     -0.218705
     55 C18        -2.7170    2.8240    0.3310 c         1 MOL      0.522542
     56 O9         -1.7730    2.0700    0.2700 o         1 MOL     -0.405988
     57 H25        -4.2370    0.8050   -1.2810 hn        1 MOL      0.220311
     58 H26        -4.6520    2.4160    1.0960 h1        1 MOL      0.108438
     59 H27        -4.7520    2.9510   -0.5920 h1        1 MOL      0.108438
     60 N6         -2.6220    4.1060    0.7380 n         1 MOL     -0.663349
     61 C19        -1.5930    4.9350    1.3680 c3        1 MOL      0.652615
     62 C20        -1.9510    6.4260    1.1750 c         1 MOL      0.344307
     63 O10        -3.1910    6.6030    1.0940 o         1 MOL     -0.518316
     64 C21        -1.5080    4.7020    2.9300 c3        1 MOL     -0.201777
     65 C22        -1.1960    3.2880    3.2440 c         1 MOL      0.641254
     66 O11        -2.0170    2.4910    3.7430 o         1 MOL     -0.648053
     67 O12        -0.0530    2.9910    2.9110 o         1 MOL     -0.648053
     68 H28        -3.5490    4.5010    0.6840 hn        1 MOL      0.313662
     69 H29        -0.5780    4.7210    1.0190 h1        1 MOL     -0.126347
     70 H30        -2.4850    4.9280    3.3630 hc        1 MOL      0.024330
     71 H31        -0.8090    5.3870    3.4000 hc        1 MOL      0.024330
     72 N7         -1.0290    7.4180    1.1200 n         1 MOL     -0.435249
     73 C23         0.4280    7.3130    1.1610 c3        1 MOL     -0.114099
     74 C24         0.9870    6.5530   -0.0030 c         1 MOL      0.580240
     75 O13         0.4140    6.5680   -1.1340 o         1 MOL     -0.529855
     76 H32        -1.3120    8.2420    0.6150 hn        1 MOL      0.335087
     77 H33         0.7220    6.8160    2.0890 h1        1 MOL      0.093792
     78 H34         0.7660    8.3510    1.1410 h1        1 MOL      0.093792
     79 N8          2.0150    5.7920    0.2600 n         1 MOL     -0.540934
     80 C25         2.7340    4.8970   -0.6760 c3        1 MOL      0.044616
     81 C26         1.8400    3.6750   -1.0940 c         1 MOL      0.655241
     82 O14         1.2940    2.9830   -0.1610 o         1 MOL     -0.561251
     83 C27         4.0490    4.5960   -0.0180 c3        1 MOL      0.235100
     84 C28         4.8940    3.6520   -0.9000 c3        1 MOL     -0.442283
     85 O15         3.8400    3.8490    1.1510 oh        1 MOL     -0.585076
     86 H35         2.3350    5.7670    1.2170 hn        1 MOL      0.327357
     87 H36         2.9920    5.4700   -1.5680 h1        1 MOL      0.069693
     88 H37         4.5040    5.5540    0.2330 h1        1 MOL      0.055315
     89 H38         4.7260    3.6410    1.4660 ho        1 MOL      0.412027
     90 H39         5.7740    3.2700   -0.3860 hc        1 MOL      0.116197
     91 H40         4.3940    2.7370   -1.2030 hc        1 MOL      0.116197
     92 H41         5.2150    4.1950   -1.7940 hc        1 MOL      0.116197
     93 N9          1.6410    3.4590   -2.3660 n         1 MOL     -0.670741
     94 C29         0.9310    2.3130   -3.0420 c3        1 MOL      0.028111
     95 C30         1.3940    0.9370   -2.5630 c         1 MOL      0.633037
     96 O16         1.2190    0.7040   -1.3750 o         1 MOL     -0.578914
     97 C31        -0.6570    2.2720   -3.0540 c3        1 MOL      0.603673
     98 C32        -1.3280    3.6720   -2.8770 c3        1 MOL     -0.317314
     99 C33        -1.1800    1.4690   -4.2360 c3        1 MOL     -0.127941
    100 C34        -1.1320    4.6740   -4.0030 c3        1 MOL     -0.109101
    101 H42         2.0880    4.1070   -3.0070 hn        1 MOL      0.350414
    102 H43         1.2750    2.3090   -4.0660 h1        1 MOL      0.016348
    103 H44        -0.9950    1.7770   -2.1440 hc        1 MOL     -0.276582
    104 H45        -1.0520    4.1460   -1.9310 hc        1 MOL      0.122346
    105 H46        -2.4090    3.5340   -2.8300 hc        1 MOL      0.122346
    106 H47        -0.7350    1.9380   -5.1150 hc        1 MOL     -0.000114
    107 H48        -0.7860    0.4590   -4.1980 hc        1 MOL     -0.000114
    108 H49        -2.2720    1.5160   -4.2820 hc        1 MOL     -0.000114
    109 H50        -1.9080    4.4800   -4.7480 hc        1 MOL      0.025521
    110 H51        -1.2080    5.7110   -3.7010 hc        1 MOL      0.025521
    111 H52        -0.1690    4.5110   -4.4900 hc        1 MOL      0.025521
    112 N10         2.0440    0.0780   -3.2960 n         1 MOL     -0.424120
    113 C35         2.4130   -1.3110   -2.8660 c3        1 MOL     -0.019203
    114 C36         3.9000   -1.6470   -3.0120 c         1 MOL      0.641644
    115 O17         4.2730   -2.7690   -2.7790 o         1 MOL     -0.543620
    116 C37         1.5830   -2.3800   -3.5850 c3        1 MOL      0.414089
    117 C38         1.7660   -2.3180   -5.1090 c3        1 MOL     -0.347359
    118 O18         0.1880   -2.1400   -3.4570 oh        1 MOL     -0.626238
    119 H53         2.1300    0.3350   -4.2650 hn        1 MOL      0.244289
    120 H54         2.0920   -1.4480   -1.8360 h1        1 MOL      0.072272
    121 H55         1.8850   -3.3700   -3.2490 h1        1 MOL      0.018642
    122 H56        -0.2190   -2.4390   -2.6450 ho        1 MOL      0.360456
    123 H57         2.8260   -2.3360   -5.3780 hc        1 MOL      0.077480
    124 H58         1.2820   -3.1970   -5.5350 hc        1 MOL      0.077480
    125 H59         1.3470   -1.4050   -5.5150 hc        1 MOL      0.077480
    126 N11         4.7520   -0.6270   -3.2590 n         1 MOL     -0.568001
    127 C39         6.2070   -0.7600   -3.0060 c3        1 MOL      0.106300
    128 C40         6.5510   -0.7850   -1.5520 c         1 MOL      0.566284
    129 O19         6.7640    0.3100   -1.0180 o         1 MOL     -0.531365
    130 C41         7.0410    0.3240   -3.7280 c3        1 MOL      0.390214
    131 C42         8.4270   -0.2800   -4.0530 c3        1 MOL     -0.387525
    132 O20         6.4420    0.6580   -4.9850 oh        1 MOL     -0.606132
    133 H60         4.4550    0.3390   -3.1890 hn        1 MOL      0.252636
    134 H61         6.5470   -1.7550   -3.3020 h1        1 MOL      0.041973
    135 H62         7.1650    1.2030   -3.1020 h1        1 MOL     -0.009120
    136 H63         5.6880    1.2260   -4.8180 ho        1 MOL      0.367963
    137 H64         8.3750   -1.0630   -4.8130 hc        1 MOL      0.102793
    138 H65         9.0750    0.5450   -4.3550 hc        1 MOL      0.102793
    139 H66         8.9180   -0.7660   -3.2150 hc        1 MOL      0.102793
    140 N12         6.6190   -2.0380   -1.0380 n         1 MOL     -0.558938
    141 C43         6.4680   -2.5210    0.3740 c3        1 MOL      0.320541
    142 C44         5.2010   -2.0440    1.0240 c         1 MOL      0.453366
    143 O21         4.6420   -1.0090    0.6180 o         1 MOL     -0.461995
    144 C45         7.7080   -2.2010    1.1770 c3        1 MOL     -0.367910
    145 C46         9.0780   -2.5600    0.4150 c3        1 MOL      0.323679
    146 C47        10.3950   -2.1410    1.0930 c3        1 MOL     -0.194288
    147 C48        11.6040   -2.5700    0.2980 c3        1 MOL      0.112053
    148 N13        12.1440   -3.8710    0.7350 n4        1 MOL     -0.338977
    149 H67         6.7100   -2.7390   -1.7600 hn        1 MOL      0.265940
    150 H68         6.4800   -3.6160    0.4100 h1        1 MOL      0.018831
    151 H69         7.5100   -2.6870    2.1340 hc        1 MOL      0.088766
    152 H70         7.7110   -1.1090    1.2080 hc        1 MOL      0.088766
    153 H71         9.0580   -2.1100   -0.5780 hc        1 MOL     -0.075865
    154 H72         9.0380   -3.6530    0.3590 hc        1 MOL     -0.075865
    155 H73        10.4920   -2.6720    2.0440 hc        1 MOL      0.088568
    156 H74        10.3940   -1.0510    1.1510 hc        1 MOL      0.088568
    157 H75        12.3730   -1.8120    0.4830 hx        1 MOL      0.061570
    158 H76        11.5420   -2.6010   -0.7980 hx        1 MOL      0.061570
    159 H77        11.5380   -4.6030    0.4000 hn        1 MOL      0.255436
    160 H78        13.0510   -4.0480    0.3270 hn        1 MOL      0.255436
    161 H79        12.2170   -3.9510    1.7450 hn        1 MOL      0.255436
    162 N14         4.6370   -2.7850    1.9510 n         1 MOL     -0.579013
    163 C49         3.4400   -2.3590    2.7390 c3        1 MOL      0.450775
    164 C50         2.0900   -2.3930    1.9770 c         1 MOL      0.158953
    165 O22         1.4470   -1.3670    1.9890 o         1 MOL     -0.431230
    166 C51         3.2960   -3.1000    4.0520 c3        1 MOL     -0.025364
    167 C52         4.4580   -2.6880    5.0040 c3        1 MOL     -0.214271
    168 C53         4.2830   -3.3670    6.3610 c         1 MOL      0.650397
    169 O23         4.4090   -4.6380    6.4590 o         1 MOL     -0.621649
    170 O24         3.8920   -2.6870    7.3520 o         1 MOL     -0.621649
    171 H80         5.1430   -3.6260    2.1730 hn        1 MOL      0.323964
    172 H81         3.6160   -1.3100    2.9650 h1        1 MOL      0.026055
    173 H82         3.2770   -4.1900    3.9550 hc        1 MOL      0.052481
    174 H83         2.4170   -2.7380    4.5800 hc        1 MOL      0.052481
    175 H84         4.4640   -1.6080    5.1620 hc        1 MOL      0.018473
    176 H85         5.4110   -3.0270    4.5940 hc        1 MOL      0.018473
    177 N15         1.7530   -3.4830    1.2070 n         1 MOL     -0.260991
    178 C54         2.3680   -4.8130    1.0860 c3        1 MOL     -0.061803
    179 H86         2.9830   -5.0100    1.9640 h1        1 MOL      0.040455
    180 H87         1.5860   -5.5710    1.0130 h1        1 MOL      0.040455
    181 H88         2.9910   -4.8460    0.1920 h1        1 MOL      0.040455
    182 H89         0.9190   -3.3820    0.6520 hn        1 MOL      0.332823
    183 Ca1         0.3930    0.8800    1.1660 Ca        1 MOL      1.746290
    184 O25         1.6210    1.0450    3.7480 oh        1 MOL     -0.838025
    185 H90         1.1800    1.8170    4.0980 ho        1 MOL      0.389909
    186 H91         1.4520    0.3530    4.3830 ho        1 MOL      0.389909
    187 O26         2.9650    1.0330    1.0040 oh        1 MOL     -0.838025
    188 H92         3.6520    0.3730    0.8780 ho        1 MOL      0.389909
    189 H93         3.3760    1.8570    0.7380 ho        1 MOL      0.389909
    190 O27        -1.0850    0.0540    3.2850 oh        1 MOL     -0.838025
    191 H94        -1.8960    0.5120    3.5080 ho        1 MOL      0.389909
    192 H95        -0.7030   -0.2040    4.1230 ho        1 MOL      0.389909
@<TRIPOS>BOND
     1    1    2 1   
     2    1    4 1   
     3    1    5 1   
     4    1    6 1   
     5    2    3 2   
     6    2    7 1   
     7    7    8 1   
     8    7   15 1   
     9    8    9 1   
    10    8   11 1   
    11    8   16 1   
    12    9   10 2   
    13    9   19 1   
    14   11   12 1   
    15   11   17 1   
    16   11   18 1   
    17   12   13 1   
    18   12   14 1   
    19   19   20 1   
    20   19   28 1   
    21   20   21 1   
    22   20   23 1   
    23   20   29 1   
    24   21   22 2   
    25   21   41 1   
    26   23   24 1   
    27   23   30 1   
    28   23   31 1   
    29   24   25 1   
    30   24   32 1   
    31   24   33 1   
    32   25   26 1   
    33   25   34 1   
    34   25   35 1   
    35   26   27 1   
    36   26   36 1   
    37   26   37 1   
    38   27   38 1   
    39   27   39 1   
    40   27   40 1   
    41   41   42 1   
    42   41   49 1   
    43   42   43 1   
    44   42   45 1   
    45   42   50 1   
    46   43   44 2   
    47   43   53 1   
    48   45   46 1   
    49   45   51 1   
    50   45   52 1   
    51   46   47 1   
    52   46   48 1   
    53   53   54 1   
    54   53   57 1   
    55   54   55 1   
    56   54   58 1   
    57   54   59 1   
    58   55   56 2   
    59   55   60 1   
    60   60   61 1   
    61   60   68 1   
    62   61   62 1   
    63   61   64 1   
    64   61   69 1   
    65   62   63 2   
    66   62   72 1   
    67   64   65 1   
    68   64   70 1   
    69   64   71 1   
    70   65   66 1   
    71   65   67 1   
    72   72   73 1   
    73   72   76 1   
    74   73   74 1   
    75   73   77 1   
    76   73   78 1   
    77   74   75 2   
    78   74   79 1   
    79   79   80 1   
    80   79   86 1   
    81   80   81 1   
    82   80   83 1   
    83   80   87 1   
    84   81   82 2   
    85   81   93 1   
    86   83   84 1   
    87   83   85 1   
    88   83   88 1   
    89   84   90 1   
    90   84   91 1   
    91   84   92 1   
    92   85   89 1   
    93   93   94 1   
    94   93  101 1   
    95   94   95 1   
    96   94   97 1   
    97   94  102 1   
    98   95   96 2   
    99   95  112 1   
   100   97   98 1   
   101   97   99 1   
   102   97  103 1   
   103   98  100 1   
   104   98  104 1   
   105   98  105 1   
   106   99  106 1   
   107   99  107 1   
   108   99  108 1   
   109  100  109 1   
   110  100  110 1   
   111  100  111 1   
   112  112  113 1   
   113  112  119 1   
   114  113  114 1   
   115  113  116 1   
   116  113  120 1   
   117  114  115 2   
   118  114  126 1   
   119  116  117 1   
   120  116  118 1   
   121  116  121 1   
   122  117  123 1   
   123  117  124 1   
   124  117  125 1   
   125  118  122 1   
   126  126  127 1   
   127  126  133 1   
   128  127  128 1   
   129  127  130 1   
   130  127  134 1   
   131  128  129 2   
   132  128  140 1   
   133  130  131 1   
   134  130  132 1   
   135  130  135 1   
   136  131  137 1   
   137  131  138 1   
   138  131  139 1   
   139  132  136 1   
   140  140  141 1   
   141  140  149 1   
   142  141  142 1   
   143  141  144 1   
   144  141  150 1   
   145  142  143 2   
   146  142  162 1   
   147  144  145 1   
   148  144  151 1   
   149  144  152 1   
   150  145  146 1   
   151  145  153 1   
   152  145  154 1   
   153  146  147 1   
   154  146  155 1   
   155  146  156 1   
   156  147  148 1   
   157  147  157 1   
   158  147  158 1   
   159  148  159 1   
   160  148  160 1   
   161  148  161 1   
   162  162  163 1   
   163  162  171 1   
   164  163  164 1   
   165  163  166 1   
   166  163  172 1   
   167  164  165 2   
   168  164  177 1   
   169  166  167 1   
   170  166  173 1   
   171  166  174 1   
   172  167  168 1   
   173  167  175 1   
   174  167  176 1   
   175  168  169 1   
   176  168  170 1   
   177  177  178 1   
   178  177  182 1   
   179  178  179 1   
   180  178  180 1   
   181  178  181 1   
   182  184  185 1   
   183  184  186 1   
   184  187  188 1   
   185  187  189 1   
   186  190  191 1   
   187  190  192 1   
@<TRIPOS>SUBSTRUCTURE
     1 MOL         1 TEMP              0 ****  ****    0 ROOT
