@<TRIPOS>MOLECULE
MOL
  192   187     1     0     0
SMALL
resp


@<TRIPOS>ATOM
      1 C1         -6.5910   -1.9530    5.5190 c3        1 MOL     -0.143781
      2 C2         -5.8420   -1.5580    4.1810 c         1 MOL      0.656965
      3 O1         -5.6500   -2.3950    3.2810 o         1 MOL     -0.588084
      4 H1         -5.9410   -1.7560    6.3710 hc        1 MOL      0.036257
      5 H2         -7.5010   -1.3610    5.6140 hc        1 MOL      0.036257
      6 H3         -6.8460   -3.0120    5.4950 hc        1 MOL      0.036257
      7 N1         -5.4780   -0.2970    3.9700 n         1 MOL     -0.496691
      8 C3         -5.1720    0.2810    2.6080 c3        1 MOL      0.497904
      9 C4         -3.6920    0.0130    2.1820 c         1 MOL      0.047237
     10 O2         -3.3380    0.4880    1.1460 o         1 MOL     -0.293398
     11 C5         -5.4900    1.7880    2.5680 c3        1 MOL     -0.335077
     12 C6         -6.8690    2.0930    3.1440 c         1 MOL      0.688486
     13 O3         -7.6860    2.6950    2.4160 o         1 MOL     -0.678573
     14 O4         -7.2910    1.8670    4.3700 o         1 MOL     -0.678573
     15 H4         -5.5700    0.4020    4.7000 hn        1 MOL      0.202819
     16 H5         -5.8970   -0.2060    1.9660 h1        1 MOL      0.050189
     17 H6         -5.3560    2.3100    1.6180 hc        1 MOL      0.033403
     18 H7         -4.7430    2.2630    3.2060 hc        1 MOL      0.033403
     19 N2         -2.8710   -0.8020    2.7960 n         1 MOL     -0.482993
     20 C7         -1.4390   -0.9430    2.5730 c3        1 MOL      0.378624
     21 C8         -0.9550   -2.3300    2.1200 c         1 MOL      0.222267
     22 O5         -1.5750   -3.3420    2.4930 o         1 MOL     -0.464767
     23 C9         -0.7310   -0.4990    3.8830 c3        1 MOL     -0.214791
     24 C10        -0.8830    1.0350    3.9980 c3        1 MOL      0.246284
     25 C11         0.1760    1.5440    5.0380 c3        1 MOL     -0.296917
     26 C12         0.0550    3.0890    5.0370 c3        1 MOL      0.288325
     27 N3          1.2530    3.7010    5.6880 n4        1 MOL     -0.569395
     28 H8         -3.2550   -1.4450    3.4800 hn        1 MOL      0.276462
     29 H9         -1.1020   -0.2370    1.8190 h1        1 MOL      0.038258
     30 H10         0.3150   -0.7360    3.6860 hc        1 MOL      0.056712
     31 H11        -1.0930   -0.9790    4.7960 hc        1 MOL      0.056712
     32 H12        -1.8540    1.3920    4.3650 hc        1 MOL     -0.003530
     33 H13        -0.6020    1.3900    3.0140 hc        1 MOL     -0.003530
     34 H14         1.1270    1.2160    4.6180 hc        1 MOL      0.076206
     35 H15        -0.0260    1.1050    6.0150 hc        1 MOL      0.076206
     36 H16        -0.8630    3.3460    5.5660 hx        1 MOL      0.033634
     37 H17        -0.1320    3.4050    4.0060 hx        1 MOL      0.033634
     38 H18         2.0370    3.1450    5.3760 hn        1 MOL      0.377303
     39 H19         1.4040    4.6650    5.4200 hn        1 MOL      0.377303
     40 H20         1.1700    3.6830    6.6970 hn        1 MOL      0.377303
     41 N4         -0.0200   -2.4530    1.1420 n         1 MOL      0.019121
     42 C13         0.7910   -1.4390    0.3480 c3        1 MOL     -0.341738
     43 C14         1.4730   -0.4220    1.2650 c         1 MOL      0.514465
     44 O6          1.2120    0.7460    1.2370 o         1 MOL     -0.538134
     45 C15        -0.0510   -0.8270   -0.7940 c3        1 MOL     -0.455836
     46 C16        -0.2330   -1.6700   -2.0500 c         1 MOL      0.842704
     47 O7          0.1720   -2.8660   -2.1530 o         1 MOL     -0.768314
     48 O8         -0.7240   -1.1090   -3.0330 o         1 MOL     -0.768314
     49 H21         0.0010   -3.3690    0.7240 hn        1 MOL      0.081636
     50 H22         1.6340   -1.9250   -0.1380 h1        1 MOL      0.083250
     51 H23         0.3980    0.0960   -1.1560 hc        1 MOL      0.183560
     52 H24        -1.0580   -0.6000   -0.4310 hc        1 MOL      0.183560
     53 N5          2.4140   -0.8980    2.0960 n         1 MOL     -0.227135
     54 C17         3.0520   -2.2730    2.1440 c3        1 MOL     -0.062858
     55 C18         4.2450   -2.2370    3.1780 c         1 MOL      0.467109
     56 O9          4.3410   -1.3150    4.0060 o         1 MOL     -0.511419
     57 H25         2.7100   -0.2670    2.8350 hn        1 MOL      0.222202
     58 H26         3.3410   -2.4770    1.1060 h1        1 MOL      0.059633
     59 H27         2.3270   -3.0350    2.4210 h1        1 MOL      0.059633
     60 N6          5.2220   -3.1800    3.1460 n         1 MOL     -0.331698
     61 C19         5.4580   -4.0140    1.9410 c3        1 MOL     -0.042260
     62 C20         6.0990   -3.2300    0.7470 c         1 MOL      0.504066
     63 O10         6.7530   -2.2300    0.9240 o         1 MOL     -0.437791
     64 C21         6.4170   -5.1840    2.3160 c3        1 MOL     -0.166294
     65 C22         7.6600   -4.8520    3.2670 c         1 MOL      0.774218
     66 O11         7.4370   -5.0560    4.4730 o         1 MOL     -0.673659
     67 O12         8.7590   -4.4830    2.8620 o         1 MOL     -0.673659
     68 H28         5.8420   -3.3800    3.9220 hn        1 MOL      0.271495
     69 H29         4.5100   -4.4230    1.5920 h1        1 MOL      0.030922
     70 H30         6.8610   -5.6260    1.4260 hc        1 MOL      0.008207
     71 H31         5.8480   -5.9660    2.8240 hc        1 MOL      0.008207
     72 N7          5.8100   -3.6900   -0.5090 n         1 MOL     -0.164356
     73 C23         6.4950   -3.2270   -1.7460 c3        1 MOL     -0.472967
     74 C24         6.3310   -1.7340   -2.2140 c         1 MOL      0.641115
     75 O13         7.2490   -1.2190   -2.8900 o         1 MOL     -0.548960
     76 H32         5.0680   -4.3620   -0.5820 hn        1 MOL      0.150327
     77 H33         6.0990   -3.8520   -2.5400 h1        1 MOL      0.180269
     78 H34         7.5450   -3.3780   -1.4900 h1        1 MOL      0.180269
     79 N8          5.2380   -1.1030   -1.7630 n         1 MOL     -0.424027
     80 C25         4.8960    0.2890   -2.1280 c3        1 MOL      0.158304
     81 C26         5.0250    1.2060   -0.9430 c         1 MOL      0.496809
     82 O14         4.6890    0.8000    0.1750 o         1 MOL     -0.541552
     83 C27         3.4720    0.4090   -2.6220 c3        1 MOL      0.203119
     84 C28         3.1550   -0.2750   -3.9170 c3        1 MOL     -0.451287
     85 O15         3.2600    1.6990   -2.9010 oh        1 MOL     -0.581820
     86 H35         4.6110   -1.6550   -1.1850 hn        1 MOL      0.214965
     87 H36         5.6830    0.4820   -2.8530 h1        1 MOL      0.050599
     88 H37         2.7960    0.0100   -1.8690 h1        1 MOL      0.159363
     89 H38         2.4160    1.7850   -3.3390 ho        1 MOL      0.406815
     90 H39         3.4180   -1.3340   -3.9040 hc        1 MOL      0.115433
     91 H40         2.0890   -0.1420   -4.0890 hc        1 MOL      0.115433
     92 H41         3.6960    0.2400   -4.7140 hc        1 MOL      0.115433
     93 N9          5.5060    2.4160   -1.1200 n         1 MOL     -0.274031
     94 C29         5.6280    3.4200   -0.0830 c3        1 MOL     -0.256225
     95 C30         4.4330    4.3780    0.0110 c         1 MOL      0.459372
     96 O16         4.4270    5.2630    0.7770 o         1 MOL     -0.536512
     97 C31         6.9580    4.2300   -0.1600 c3        1 MOL      0.275189
     98 C32         6.9160    5.1920   -1.4070 c3        1 MOL     -0.040422
     99 C33         8.1340    3.2010   -0.1550 c3        1 MOL     -0.266081
    100 C34         8.2000    6.0390   -1.6830 c3        1 MOL     -0.096168
    101 H42         5.7900    2.6400   -2.0670 hn        1 MOL      0.219397
    102 H43         5.6670    2.8710    0.8610 h1        1 MOL      0.169199
    103 H44         7.0390    4.8350    0.7400 hc        1 MOL     -0.007685
    104 H45         6.0480    5.8450   -1.3590 hc        1 MOL      0.003582
    105 H46         6.7370    4.5920   -2.2970 hc        1 MOL      0.003582
    106 H47         9.0510    3.7650    0.0060 hc        1 MOL      0.073319
    107 H48         8.0230    2.4530    0.6360 hc        1 MOL      0.073319
    108 H49         8.0910    2.7350   -1.1380 hc        1 MOL      0.073319
    109 H50         8.4820    6.6530   -0.8190 hc        1 MOL      0.025707
    110 H51         9.0610    5.3820   -1.6990 hc        1 MOL      0.025707
    111 H52         8.1330    6.5880   -2.6200 hc        1 MOL      0.025707
    112 N10         3.3510    4.0450   -0.7500 n         1 MOL     -0.068423
    113 C35         2.0320    4.7450   -0.7640 c3        1 MOL     -0.177949
    114 C36         0.8430    3.8560   -0.8930 c         1 MOL      0.601551
    115 O17         0.9280    2.9950   -1.7240 o         1 MOL     -0.441692
    116 C37         2.0610    5.7920   -1.9500 c3        1 MOL      0.328836
    117 C38         2.6820    5.5100   -3.2810 c3        1 MOL     -0.200190
    118 O18         2.9090    6.8200   -1.5340 oh        1 MOL     -0.600631
    119 H53         3.3990    3.1950   -1.3030 hn        1 MOL      0.066029
    120 H54         1.8550    5.3500    0.1240 h1        1 MOL      0.079220
    121 H55         1.0960    6.1620   -2.2990 h1        1 MOL      0.042979
    122 H56         3.7310    6.3460   -1.7050 ho        1 MOL      0.369983
    123 H57         2.4380    6.3150   -3.9740 hc        1 MOL      0.048187
    124 H58         3.7570    5.3990   -3.1320 hc        1 MOL      0.048187
    125 H59         2.3720    4.5640   -3.7260 hc        1 MOL      0.048187
    126 N11        -0.2750    4.0900   -0.1640 n         1 MOL     -0.685008
    127 C39        -1.3640    3.0970    0.0030 c3        1 MOL      0.011829
    128 C40        -2.1800    2.9600   -1.2890 c         1 MOL      0.240442
    129 O19        -2.1220    3.7680   -2.2080 o         1 MOL     -0.479053
    130 C41        -2.3130    3.5510    1.1530 c3        1 MOL      0.773813
    131 C42        -3.3600    4.6330    0.7690 c3        1 MOL     -0.527235
    132 O20        -1.5800    3.9430    2.2250 oh        1 MOL     -0.720910
    133 H60        -0.1930    4.8880    0.4450 hn        1 MOL      0.371803
    134 H61        -0.9240    2.1130    0.1850 h1        1 MOL      0.187452
    135 H62        -2.8900    2.6810    1.4350 h1        1 MOL     -0.066170
    136 H63        -2.1530    3.7320    2.9630 ho        1 MOL      0.332554
    137 H64        -2.8800    5.4260    0.1910 hc        1 MOL      0.116186
    138 H65        -4.2260    4.2250    0.2440 hc        1 MOL      0.116186
    139 H66        -3.8500    5.1120    1.6160 hc        1 MOL      0.116186
    140 N12        -2.9540    1.8450   -1.3930 n         1 MOL      0.087077
    141 C43        -3.7260    1.4280   -2.5420 c3        1 MOL     -0.064303
    142 C44        -4.0160   -0.1280   -2.5880 c         1 MOL      0.888357
    143 O21        -4.4760   -0.6350   -3.6470 o         1 MOL     -0.719944
    144 C45        -4.9970    2.2400   -2.9020 c3        1 MOL     -0.302730
    145 C46        -6.0770    2.3320   -1.8320 c3        1 MOL     -0.078642
    146 C47        -7.0430    3.4730   -2.1470 c3        1 MOL     -0.046986
    147 C48        -6.4470    4.9020   -2.2270 c3        1 MOL      0.103843
    148 N13        -7.3310    5.9190   -2.7830 n4        1 MOL     -0.394550
    149 H67        -2.8490    1.1710   -0.6390 hn        1 MOL     -0.183025
    150 H68        -3.0650    1.3700   -3.4120 h1        1 MOL      0.091349
    151 H69        -5.4510    1.8450   -3.8050 hc        1 MOL      0.093258
    152 H70        -4.6750    3.2610   -3.1160 hc        1 MOL      0.093258
    153 H71        -5.6720    2.5390   -0.8370 hc        1 MOL      0.096740
    154 H72        -6.5890    1.3780   -1.7740 hc        1 MOL      0.096740
    155 H73        -7.8760    3.3920   -1.4570 hc        1 MOL      0.043466
    156 H74        -7.4100    3.2140   -3.1380 hc        1 MOL      0.043466
    157 H75        -5.4910    4.9250   -2.7640 hx        1 MOL      0.068253
    158 H76        -6.2310    5.1670   -1.1960 hx        1 MOL      0.068253
    159 H77        -7.4080    5.8880   -3.7960 hn        1 MOL      0.326547
    160 H78        -8.2640    5.8260   -2.4030 hn        1 MOL      0.326547
    161 H79        -6.9250    6.8320   -2.6490 hn        1 MOL      0.326547
    162 N14        -3.8460   -0.9040   -1.4690 n         1 MOL     -0.455902
    163 C49        -4.3150   -2.3040   -1.3400 c3        1 MOL     -0.142398
    164 C50        -5.8830   -2.2560   -1.2390 c         1 MOL      0.207978
    165 O22        -6.4610   -1.6150   -0.3590 o         1 MOL     -0.471362
    166 C51        -3.6390   -3.0590   -0.1680 c3        1 MOL      1.218037
    167 C52        -4.0780   -4.4910   -0.0050 c3        1 MOL     -1.357441
    168 C53        -3.8050   -5.2450   -1.3310 c         1 MOL      1.253590
    169 O23        -2.7180   -5.8380   -1.4330 o         1 MOL     -0.913428
    170 O24        -4.6050   -5.2390   -2.2650 o         1 MOL     -0.913428
    171 H80        -3.7060   -0.4850   -0.5680 hn        1 MOL      0.159703
    172 H81        -3.9900   -2.7680   -2.2700 h1        1 MOL      0.162256
    173 H82        -3.9280   -2.6140    0.7930 hc        1 MOL     -0.252139
    174 H83        -2.5520   -3.0960   -0.3020 hc        1 MOL     -0.252139
    175 H84        -5.1160   -4.5810    0.3030 hc        1 MOL      0.325596
    176 H85        -3.4950   -4.8300    0.8540 hc        1 MOL      0.325596
    177 N15        -6.4970   -2.9400   -2.1600 n         1 MOL     -0.103528
    178 C54        -7.9570   -3.1570   -2.2020 c3        1 MOL     -0.132860
    179 H86        -8.3220   -2.9690   -3.2120 h1        1 MOL      0.069690
    180 H87        -8.1800   -4.1860   -1.9220 h1        1 MOL      0.069690
    181 H88        -8.4460   -2.4760   -1.5070 h1        1 MOL      0.069690
    182 H89        -5.9640   -3.3350   -2.9150 hn        1 MOL      0.325029
    183 Ca1        -0.4480   -5.3550   -2.5090 Ca        1 MOL      1.691576
    184 O25        -2.0280   -3.6120   -3.7070 oh        1 MOL     -0.929418
    185 H90        -2.0070   -2.6530   -3.7830 ho        1 MOL      0.459305
    186 H91        -2.0270   -3.9180   -4.6150 ho        1 MOL      0.459305
    187 O26        -1.6330   -6.2000   -4.7280 oh        1 MOL     -0.929418
    188 H92        -1.3090   -7.0550   -4.9980 ho        1 MOL      0.459305
    189 H93        -2.5540   -6.1940   -4.9690 ho        1 MOL      0.459305
    190 O27         1.2990   -5.4260   -4.4490 oh        1 MOL     -0.929418
    191 H94         1.6530   -4.5690   -4.6600 ho        1 MOL      0.459305
    192 H95         1.7660   -6.0270   -5.0280 ho        1 MOL      0.459305
@<TRIPOS>BOND
     1    1    2 1   
     2    1    4 1   
     3    1    5 1   
     4    1    6 1   
     5    2    3 2   
     6    2    7 1   
     7    7    8 1   
     8    7   15 1   
     9    8    9 1   
    10    8   11 1   
    11    8   16 1   
    12    9   10 2   
    13    9   19 1   
    14   11   12 1   
    15   11   17 1   
    16   11   18 1   
    17   12   13 1   
    18   12   14 1   
    19   19   20 1   
    20   19   28 1   
    21   20   21 1   
    22   20   23 1   
    23   20   29 1   
    24   21   22 2   
    25   21   41 1   
    26   23   24 1   
    27   23   30 1   
    28   23   31 1   
    29   24   25 1   
    30   24   32 1   
    31   24   33 1   
    32   25   26 1   
    33   25   34 1   
    34   25   35 1   
    35   26   27 1   
    36   26   36 1   
    37   26   37 1   
    38   27   38 1   
    39   27   39 1   
    40   27   40 1   
    41   41   42 1   
    42   41   49 1   
    43   42   43 1   
    44   42   45 1   
    45   42   50 1   
    46   43   44 2   
    47   43   53 1   
    48   45   46 1   
    49   45   51 1   
    50   45   52 1   
    51   46   47 1   
    52   46   48 1   
    53   53   54 1   
    54   53   57 1   
    55   54   55 1   
    56   54   58 1   
    57   54   59 1   
    58   55   56 2   
    59   55   60 1   
    60   60   61 1   
    61   60   68 1   
    62   61   62 1   
    63   61   64 1   
    64   61   69 1   
    65   62   63 2   
    66   62   72 1   
    67   64   65 1   
    68   64   70 1   
    69   64   71 1   
    70   65   66 1   
    71   65   67 1   
    72   72   73 1   
    73   72   76 1   
    74   73   74 1   
    75   73   77 1   
    76   73   78 1   
    77   74   75 2   
    78   74   79 1   
    79   79   80 1   
    80   79   86 1   
    81   80   81 1   
    82   80   83 1   
    83   80   87 1   
    84   81   82 2   
    85   81   93 1   
    86   83   84 1   
    87   83   85 1   
    88   83   88 1   
    89   84   90 1   
    90   84   91 1   
    91   84   92 1   
    92   85   89 1   
    93   93   94 1   
    94   93  101 1   
    95   94   95 1   
    96   94   97 1   
    97   94  102 1   
    98   95   96 2   
    99   95  112 1   
   100   97   98 1   
   101   97   99 1   
   102   97  103 1   
   103   98  100 1   
   104   98  104 1   
   105   98  105 1   
   106   99  106 1   
   107   99  107 1   
   108   99  108 1   
   109  100  109 1   
   110  100  110 1   
   111  100  111 1   
   112  112  113 1   
   113  112  119 1   
   114  113  114 1   
   115  113  116 1   
   116  113  120 1   
   117  114  115 2   
   118  114  126 1   
   119  116  117 1   
   120  116  118 1   
   121  116  121 1   
   122  117  123 1   
   123  117  124 1   
   124  117  125 1   
   125  118  122 1   
   126  126  127 1   
   127  126  133 1   
   128  127  128 1   
   129  127  130 1   
   130  127  134 1   
   131  128  129 2   
   132  128  140 1   
   133  130  131 1   
   134  130  132 1   
   135  130  135 1   
   136  131  137 1   
   137  131  138 1   
   138  131  139 1   
   139  132  136 1   
   140  140  141 1   
   141  140  149 1   
   142  141  142 1   
   143  141  144 1   
   144  141  150 1   
   145  142  143 2   
   146  142  162 1   
   147  144  145 1   
   148  144  151 1   
   149  144  152 1   
   150  145  146 1   
   151  145  153 1   
   152  145  154 1   
   153  146  147 1   
   154  146  155 1   
   155  146  156 1   
   156  147  148 1   
   157  147  157 1   
   158  147  158 1   
   159  148  159 1   
   160  148  160 1   
   161  148  161 1   
   162  162  163 1   
   163  162  171 1   
   164  163  164 1   
   165  163  166 1   
   166  163  172 1   
   167  164  165 2   
   168  164  177 1   
   169  166  167 1   
   170  166  173 1   
   171  166  174 1   
   172  167  168 1   
   173  167  175 1   
   174  167  176 1   
   175  168  169 1   
   176  168  170 1   
   177  177  178 1   
   178  177  182 1   
   179  178  179 1   
   180  178  180 1   
   181  178  181 1   
   182  184  185 1   
   183  184  186 1   
   184  187  188 1   
   185  187  189 1   
   186  190  191 1   
   187  190  192 1   
@<TRIPOS>SUBSTRUCTURE
     1 MOL         1 TEMP              0 ****  ****    0 ROOT
