@<TRIPOS>MOLECULE
MOL
  184   179     1     0     0
SMALL
resp


@<TRIPOS>ATOM
      1 C1          8.3780    6.8150   -1.9300 c3        1 MOL     -0.290015
      2 C2          7.6860    6.0050   -0.8240 c         1 MOL      0.667574
      3 O1          7.9050    6.3950    0.3000 o         1 MOL     -0.603859
      4 H1          9.3360    6.3560   -2.1710 hc        1 MOL      0.075855
      5 H2          7.7470    6.8280   -2.8200 hc        1 MOL      0.075855
      6 H3          8.5420    7.8360   -1.5850 hc        1 MOL      0.075855
      7 N1          6.8790    4.9490   -1.0680 n         1 MOL     -0.424947
      8 C3          6.7950    4.1760   -2.3340 c3        1 MOL      0.023476
      9 C4          7.0030    2.6300   -2.0640 c         1 MOL      0.380121
     10 O2          6.6840    2.1700   -0.9790 o         1 MOL     -0.455168
     11 C5          5.4860    4.4410   -3.0920 c3        1 MOL     -0.155377
     12 C6          4.2410    4.3590   -2.2470 c         1 MOL      0.626630
     13 O3          3.4210    5.2980   -2.2480 o         1 MOL     -0.641604
     14 O4          4.1050    3.3360   -1.5250 o         1 MOL     -0.641604
     15 H4          6.4670    4.4860   -0.2610 hn        1 MOL      0.294156
     16 H5          7.5920    4.5370   -2.9910 h1        1 MOL      0.046163
     17 H6          5.4420    3.5830   -3.7550 hc        1 MOL      0.035444
     18 H7          5.5430    5.3850   -3.6370 hc        1 MOL      0.035444
     19 N2          7.3980    1.7610   -3.0370 n         1 MOL     -0.406296
     20 C7          7.5690    0.3170   -2.8690 c3        1 MOL      0.010832
     21 C8          8.4030   -0.1330   -1.6600 c         1 MOL      0.727646
     22 O5          9.6230    0.1400   -1.6040 o         1 MOL     -0.591108
     23 C9          7.9780   -0.4710   -4.1160 c3        1 MOL     -0.336067
     24 H8          7.8640    2.1310   -3.8480 hn        1 MOL      0.307762
     25 H9          6.5310   -0.0260   -2.8450 h1        1 MOL      0.095387
     26 H10         9.0420   -0.3930   -4.3140 hc        1 MOL      0.102415
     27 H11         7.7230   -1.5240   -3.9600 hc        1 MOL      0.102415
     28 H12         7.4990    0.0300   -4.9530 hc        1 MOL      0.102415
     29 N3          7.8480   -0.8420   -0.6800 n         1 MOL     -0.507421
     30 C10         8.5500   -1.3290    0.4650 c3        1 MOL      0.110454
     31 C11         8.0110   -2.7190    0.9120 c         1 MOL      0.425583
     32 O6          7.0290   -3.2320    0.2480 o         1 MOL     -0.458820
     33 C12         8.4580   -0.1870    1.5390 c3        1 MOL     -0.193040
     34 C13         7.0910    0.4780    1.5710 c         1 MOL      0.855362
     35 O7          6.0620   -0.1220    1.3550 o         1 MOL     -0.775007
     36 O8          7.0080    1.6560    1.7850 o         1 MOL     -0.775007
     37 H13         6.8890   -1.1400   -0.8160 hn        1 MOL      0.233786
     38 H14         9.6000   -1.4440    0.2260 h1        1 MOL      0.053244
     39 H15         9.2430    0.5320    1.3130 hc        1 MOL      0.048457
     40 H16         8.7260   -0.6180    2.5000 hc        1 MOL      0.048457
     41 N4          8.5420   -3.3450    1.9380 n         1 MOL     -0.361179
     42 C14         7.9680   -4.6100    2.4610 c3        1 MOL     -0.247572
     43 C15         6.5170   -4.4680    2.9600 c         1 MOL      0.522190
     44 O9          5.7590   -5.3690    3.0130 o         1 MOL     -0.505612
     45 H17         9.3090   -2.8970    2.4210 hn        1 MOL      0.288573
     46 H18         8.5310   -5.1070    3.2560 h1        1 MOL      0.151363
     47 H19         8.0670   -5.3050    1.6260 h1        1 MOL      0.151363
     48 N5          6.0870   -3.2540    3.2150 n         1 MOL     -0.330377
     49 C16         4.7460   -2.8570    3.6860 c3        1 MOL     -0.015631
     50 C17         3.6750   -2.7740    2.5230 c         1 MOL      0.447332
     51 O10         2.4660   -2.7160    2.7850 o         1 MOL     -0.481637
     52 C18         4.8250   -1.4860    4.3600 c3        1 MOL     -0.224475
     53 C19         3.5150   -1.1190    4.9850 c         1 MOL      0.654411
     54 N6          2.9410   -0.0160    4.5680 n         1 MOL     -0.887588
     55 O11         2.9350   -1.8690    5.7590 o         1 MOL     -0.557102
     56 H20         6.6960   -2.4850    2.9660 hn        1 MOL      0.199632
     57 H21         4.5630   -3.5800    4.4760 h1        1 MOL      0.140682
     58 H22         5.0050   -0.7620    3.5600 hc        1 MOL      0.064657
     59 H23         5.6570   -1.4040    5.0630 hc        1 MOL      0.064657
     60 H24         3.3850    0.4860    3.8090 hn        1 MOL      0.400506
     61 H25         2.0020    0.2150    4.8640 hn        1 MOL      0.400506
     62 N7          4.1580   -2.9410    1.2490 n         1 MOL     -0.158992
     63 C20         3.4140   -2.7830   -0.0180 c3        1 MOL      0.061984
     64 C21         3.0100   -4.0900   -0.6650 c         1 MOL      0.611956
     65 O12         3.2830   -5.1140   -0.0470 o         1 MOL     -0.539568
     66 H26         5.1570   -3.0170    1.2050 hn        1 MOL      0.145517
     67 H27         3.9360   -2.2210   -0.7890 h1        1 MOL      0.034759
     68 H28         2.5100   -2.1940    0.1670 h1        1 MOL      0.034759
     69 N8          2.2360   -4.1830   -1.7780 n         1 MOL     -0.697744
     70 C22         1.4410   -3.0830   -2.3790 c3        1 MOL      0.182557
     71 C23         0.0170   -3.0890   -1.8320 c         1 MOL      0.468273
     72 O13        -0.6170   -4.1420   -1.7670 o         1 MOL     -0.537531
     73 C24         1.2890   -3.3210   -3.8860 c3        1 MOL      0.379029
     74 C25         0.8080   -2.0190   -4.5630 c3        1 MOL     -0.375932
     75 O14         2.5410   -3.7400   -4.3990 oh        1 MOL     -0.662258
     76 H29         1.9490   -5.1290   -1.9750 hn        1 MOL      0.344035
     77 H30         2.0050   -2.1680   -2.2050 h1        1 MOL     -0.022765
     78 H31         0.6230   -4.1830   -3.9450 h1        1 MOL     -0.001311
     79 H32         2.7230   -4.6430   -4.1070 ho        1 MOL      0.388574
     80 H33        -0.0350   -1.5470   -4.0430 hc        1 MOL      0.106758
     81 H34         1.5650   -1.2520   -4.6210 hc        1 MOL      0.106758
     82 H35         0.5450   -2.4100   -5.5510 hc        1 MOL      0.106758
     83 N9         -0.3790   -1.9710   -1.3380 n         1 MOL     -0.270397
     84 C26        -1.6730   -1.7190   -0.8660 c3        1 MOL      0.062845
     85 C27        -2.4260   -0.8750   -1.7990 c         1 MOL      0.523596
     86 O15        -1.8840    0.0770   -2.2890 o         1 MOL     -0.515333
     87 C28        -1.4600   -1.0960    0.5780 c3        1 MOL     -0.160862
     88 C29        -0.6030   -2.2030    1.3600 c3        1 MOL      0.016546
     89 C30        -2.8480   -0.8220    1.1710 c3        1 MOL     -0.087060
     90 C31        -1.2010   -3.6410    1.5360 c3        1 MOL     -0.120594
     91 H36         0.2750   -1.2150   -1.2160 hn        1 MOL      0.172659
     92 H37        -2.2860   -2.5960   -0.6600 h1        1 MOL      0.159243
     93 H38        -0.9270   -0.1760    0.3880 hc        1 MOL      0.086594
     94 H39        -0.5870   -1.8060    2.3800 hc        1 MOL      0.004515
     95 H40         0.4180   -2.2800    0.9880 hc        1 MOL      0.004515
     96 H41        -3.4760   -1.6900    1.3710 hc        1 MOL      0.029780
     97 H42        -2.7230   -0.2970    2.1160 hc        1 MOL      0.029780
     98 H43        -3.4980   -0.1710    0.5830 hc        1 MOL      0.029780
     99 H44        -0.4140   -4.2680    1.9680 hc        1 MOL      0.029621
    100 H45        -2.0660   -3.6670    2.2090 hc        1 MOL      0.029621
    101 H46        -1.4820   -4.0290    0.5640 hc        1 MOL      0.029621
    102 N10        -3.7340   -1.1290   -2.1310 n         1 MOL     -0.591338
    103 C32        -4.6890   -1.9870   -1.5460 c3        1 MOL      0.236218
    104 C33        -6.0170   -1.2000   -1.3950 c         1 MOL      0.557411
    105 O16        -6.3140   -0.3020   -2.2090 o         1 MOL     -0.487001
    106 C34        -4.9530   -3.1620   -2.5550 c3        1 MOL     -0.130225
    107 C35        -4.5630   -2.8850   -3.9910 c         1 MOL      0.765955
    108 O17        -4.0340   -3.8090   -4.6620 o         1 MOL     -0.727573
    109 O18        -4.9750   -1.8720   -4.5340 o         1 MOL     -0.727573
    110 H47        -4.1430   -0.4280   -2.7220 hn        1 MOL      0.401805
    111 H48        -4.3760   -2.3020   -0.5420 h1        1 MOL     -0.026271
    112 H49        -5.9830   -3.4980   -2.4380 hc        1 MOL     -0.033049
    113 H50        -4.2800   -3.9360   -2.1850 hc        1 MOL     -0.033049
    114 N11        -6.7140   -1.5680   -0.3910 n         1 MOL     -0.775057
    115 C36        -8.0550   -1.0820   -0.0130 c3        1 MOL      0.632055
    116 C37        -8.2530   -0.8930    1.4720 c         1 MOL      0.195052
    117 O19        -7.6230   -1.6240    2.2630 o         1 MOL     -0.499823
    118 C38        -9.0950   -2.1620   -0.5230 c3        1 MOL     -0.040703
    119 C39       -10.5140   -1.7920   -0.7630 ca        1 MOL      0.083319
    120 C40       -11.6180   -2.3230    0.0340 ca        1 MOL     -0.211640
    121 C41       -10.7720   -0.9110   -1.7970 ca        1 MOL     -0.211640
    122 C42       -12.9060   -1.8800   -0.2920 ca        1 MOL     -0.042297
    123 C43       -12.0830   -0.4170   -2.0280 ca        1 MOL     -0.042297
    124 C44       -13.1460   -0.9850   -1.3280 ca        1 MOL     -0.175755
    125 H51        -6.3330   -2.2410    0.2420 hn        1 MOL      0.324518
    126 H52        -8.1740   -0.1260   -0.5330 h1        1 MOL     -0.072576
    127 H53        -9.1250   -3.0270    0.1380 hc        1 MOL      0.024333
    128 H54        -8.6140   -2.5720   -1.4110 hc        1 MOL      0.024333
    129 H55       -11.4150   -2.9000    0.9210 ha        1 MOL      0.134687
    130 H56        -9.9140   -0.4820   -2.2950 ha        1 MOL      0.134687
    131 H57       -13.7300   -2.3200    0.2480 ha        1 MOL      0.089935
    132 H58       -12.1630    0.3210   -2.8020 ha        1 MOL      0.089935
    133 H59       -14.1470   -0.6150   -1.4870 ha        1 MOL      0.097675
    134 N12        -9.1070    0.0760    1.9190 n         1 MOL      0.119136
    135 C45       -10.0280    1.0860    1.2670 c3        1 MOL     -0.271964
    136 C46        -9.1940    2.3410    0.8120 c         1 MOL      0.662984
    137 O20        -9.5930    3.2110    0.0310 o         1 MOL     -0.576422
    138 C47       -11.0960    1.4830    2.2500 c3        1 MOL      0.055868
    139 C48       -10.4370    1.2730    3.5950 c3        1 MOL      0.205752
    140 C49        -9.5020    0.0610    3.3370 c3        1 MOL     -0.403494
    141 H60       -10.5480    0.6940    0.3960 h1        1 MOL      0.141789
    142 H61       -11.4520    2.5120    2.1620 hc        1 MOL     -0.018710
    143 H62       -11.9010    0.7780    2.0680 hc        1 MOL     -0.018710
    144 H63        -9.9710    2.2030    3.9210 hc        1 MOL     -0.015497
    145 H64       -11.1710    1.0600    4.3680 hc        1 MOL     -0.015497
    146 H65        -8.5730    0.2090    3.8880 h1        1 MOL      0.122198
    147 H66       -10.0200   -0.8870    3.4680 h1        1 MOL      0.122198
    148 N13        -7.9000    2.3730    1.2140 n         1 MOL     -0.704593
    149 C50        -7.0080    3.4430    1.0030 c3        1 MOL      0.441456
    150 C51        -6.4740    3.8910    2.4690 c         1 MOL      0.356689
    151 O21        -6.2540    3.0300    3.4000 o         1 MOL     -0.554866
    152 C52        -5.8790    2.9520    0.0970 c3        1 MOL      0.041134
    153 C53        -5.1170    4.0680   -0.5960 c3        1 MOL     -0.186259
    154 C54        -3.9740    3.4780   -1.4550 c         1 MOL      0.641947
    155 O22        -3.2240    2.5920   -1.0030 o         1 MOL     -0.679149
    156 O23        -3.9230    3.8770   -2.6240 o         1 MOL     -0.679149
    157 H67        -7.5710    1.6490    1.8440 hn        1 MOL      0.306614
    158 H68        -7.5640    4.3110    0.6460 h1        1 MOL      0.004489
    159 H69        -6.3370    2.3730   -0.6980 hc        1 MOL      0.033683
    160 H70        -5.1880    2.3420    0.6790 hc        1 MOL      0.033683
    161 H71        -4.7180    4.7320    0.1720 hc        1 MOL     -0.008448
    162 H72        -5.7650    4.6570   -1.2440 hc        1 MOL     -0.008448
    163 N14        -6.1980    5.1730    2.7500 n         1 MOL     -0.353905
    164 C55        -6.3580    6.3730    1.8440 c3        1 MOL     -0.154665
    165 H73        -5.6260    6.3190    1.0390 h1        1 MOL      0.086129
    166 H74        -7.3630    6.3790    1.4230 h1        1 MOL      0.086129
    167 H75        -6.1990    7.2850    2.4190 h1        1 MOL      0.086129
    168 H76        -5.7780    5.3200    3.6590 hn        1 MOL      0.276671
    169 Ca1         4.5010    1.7910    0.5260 Ca        1 MOL      1.686550
    170 O24         2.3800    3.1330    1.3700 oh        1 MOL     -0.825128
    171 H77         1.7900    3.1300    2.1210 ho        1 MOL      0.408990
    172 H78         2.1740    3.9370    0.9060 ho        1 MOL      0.408990
    173 O25         3.6190    0.2480   -1.4300 oh        1 MOL     -0.825128
    174 H79         4.0370   -0.1350   -2.1950 ho        1 MOL      0.408990
    175 H80         2.6830    0.2580   -1.6490 ho        1 MOL      0.408990
    176 O26         4.2650    2.0960    3.3330 oh        1 MOL     -0.825128
    177 H81         5.0840    2.0870    3.8310 ho        1 MOL      0.408990
    178 H82         3.7910    2.8480    3.6890 ho        1 MOL      0.408990
    179 O27         2.5770    0.1530    1.2940 oh        1 MOL     -0.825128
    180 H83         2.6940   -0.7330    1.6460 ho        1 MOL      0.408990
    181 H84         1.7060    0.4090    1.5870 ho        1 MOL      0.408990
    182 O28         5.2960    4.2790    1.3400 oh        1 MOL     -0.825128
    183 H85         4.8270    5.1180    1.4350 ho        1 MOL      0.408990
    184 H86         5.9820    4.3170    2.0020 ho        1 MOL      0.408990
@<TRIPOS>BOND
     1    1    2 1   
     2    1    4 1   
     3    1    5 1   
     4    1    6 1   
     5    2    3 2   
     6    2    7 1   
     7    7    8 1   
     8    7   15 1   
     9    8    9 1   
    10    8   11 1   
    11    8   16 1   
    12    9   10 2   
    13    9   19 1   
    14   11   12 1   
    15   11   17 1   
    16   11   18 1   
    17   12   13 1   
    18   12   14 1   
    19   19   20 1   
    20   19   24 1   
    21   20   21 1   
    22   20   23 1   
    23   20   25 1   
    24   21   22 2   
    25   21   29 1   
    26   23   26 1   
    27   23   27 1   
    28   23   28 1   
    29   29   30 1   
    30   29   37 1   
    31   30   31 1   
    32   30   33 1   
    33   30   38 1   
    34   31   32 2   
    35   31   41 1   
    36   33   34 1   
    37   33   39 1   
    38   33   40 1   
    39   34   35 1   
    40   34   36 1   
    41   41   42 1   
    42   41   45 1   
    43   42   43 1   
    44   42   46 1   
    45   42   47 1   
    46   43   44 2   
    47   43   48 1   
    48   48   49 1   
    49   48   56 1   
    50   49   50 1   
    51   49   52 1   
    52   49   57 1   
    53   50   51 2   
    54   50   62 1   
    55   52   53 1   
    56   52   58 1   
    57   52   59 1   
    58   53   54 1   
    59   53   55 2   
    60   54   60 1   
    61   54   61 1   
    62   62   63 1   
    63   62   66 1   
    64   63   64 1   
    65   63   67 1   
    66   63   68 1   
    67   64   65 2   
    68   64   69 1   
    69   69   70 1   
    70   69   76 1   
    71   70   71 1   
    72   70   73 1   
    73   70   77 1   
    74   71   72 2   
    75   71   83 1   
    76   73   74 1   
    77   73   75 1   
    78   73   78 1   
    79   74   80 1   
    80   74   81 1   
    81   74   82 1   
    82   75   79 1   
    83   83   84 1   
    84   83   91 1   
    85   84   85 1   
    86   84   87 1   
    87   84   92 1   
    88   85   86 2   
    89   85  102 1   
    90   87   88 1   
    91   87   89 1   
    92   87   93 1   
    93   88   90 1   
    94   88   94 1   
    95   88   95 1   
    96   89   96 1   
    97   89   97 1   
    98   89   98 1   
    99   90   99 1   
   100   90  100 1   
   101   90  101 1   
   102  102  103 1   
   103  102  110 1   
   104  103  104 1   
   105  103  106 1   
   106  103  111 1   
   107  104  105 2   
   108  104  114 1   
   109  106  107 1   
   110  106  112 1   
   111  106  113 1   
   112  107  108 1   
   113  107  109 1   
   114  114  115 1   
   115  114  125 1   
   116  115  116 1   
   117  115  118 1   
   118  115  126 1   
   119  116  117 2   
   120  116  134 1   
   121  118  119 1   
   122  118  127 1   
   123  118  128 1   
   124  119  120 ar  
   125  119  121 ar  
   126  120  122 ar  
   127  120  129 1   
   128  121  123 ar  
   129  121  130 1   
   130  122  124 ar  
   131  122  131 1   
   132  123  124 ar  
   133  123  132 1   
   134  124  133 1   
   135  134  135 1   
   136  134  140 1   
   137  135  136 1   
   138  135  138 1   
   139  135  141 1   
   140  136  137 2   
   141  136  148 1   
   142  138  139 1   
   143  138  142 1   
   144  138  143 1   
   145  139  140 1   
   146  139  144 1   
   147  139  145 1   
   148  140  146 1   
   149  140  147 1   
   150  148  149 1   
   151  148  157 1   
   152  149  150 1   
   153  149  152 1   
   154  149  158 1   
   155  150  151 2   
   156  150  163 1   
   157  152  153 1   
   158  152  159 1   
   159  152  160 1   
   160  153  154 1   
   161  153  161 1   
   162  153  162 1   
   163  154  155 1   
   164  154  156 1   
   165  163  164 1   
   166  163  168 1   
   167  164  165 1   
   168  164  166 1   
   169  164  167 1   
   170  170  171 1   
   171  170  172 1   
   172  173  174 1   
   173  173  175 1   
   174  176  177 1   
   175  176  178 1   
   176  179  180 1   
   177  179  181 1   
   178  182  183 1   
   179  182  184 1   
@<TRIPOS>SUBSTRUCTURE
     1 MOL         1 TEMP              0 ****  ****    0 ROOT
