@<TRIPOS>MOLECULE
MOL
  186   183     1     0     0
SMALL
resp


@<TRIPOS>ATOM
      1 C1         11.1370    6.2130   -3.0050 c3        1 MOL     -0.501234
      2 C2         11.2020    4.8150   -2.3040 c         1 MOL      0.647888
      3 O1         11.6340    3.7890   -2.8000 o         1 MOL     -0.586084
      4 H1         11.3390    6.9960   -2.2740 hc        1 MOL      0.132989
      5 H2         11.8840    6.2570   -3.7990 hc        1 MOL      0.132989
      6 H3         10.1440    6.3620   -3.4310 hc        1 MOL      0.132989
      7 N1         10.7890    4.8270   -1.0100 n         1 MOL     -0.107826
      8 C3         10.7360    3.6030   -0.0820 c3        1 MOL     -0.630405
      9 C4          9.4620    2.7110   -0.2320 c         1 MOL      0.656987
     10 O2          8.3230    3.2370   -0.2210 o         1 MOL     -0.589242
     11 C5         11.0000    4.0730    1.2870 c3        1 MOL      0.104855
     12 C6         10.1770    5.2420    1.7450 c         1 MOL      0.755687
     13 O3          9.1740    5.5990    1.0550 o         1 MOL     -0.720539
     14 O4         10.4580    5.7850    2.8220 o         1 MOL     -0.720539
     15 H4         10.3580    5.6850   -0.6770 hn        1 MOL      0.103308
     16 H5         11.5810    2.9280   -0.2540 h1        1 MOL      0.197491
     17 H6         12.0280    4.4230    1.2140 hc        1 MOL      0.032792
     18 H7         10.8740    3.2010    1.9400 hc        1 MOL      0.032792
     19 N2          9.6980    1.4150   -0.3880 n         1 MOL     -0.306652
     20 C7          8.7440    0.3400   -0.7420 c3        1 MOL      0.013072
     21 C8          7.8420   -0.0180    0.5290 c         1 MOL      0.661609
     22 O5          8.3200   -0.7020    1.4310 o         1 MOL     -0.563631
     23 C9          9.5270   -0.7690   -1.4180 c3        1 MOL     -0.378267
     24 C10         8.5690   -1.9530   -1.6390 c3        1 MOL      0.058665
     25 C11         9.1660   -3.1720   -2.2400 c3        1 MOL      0.163244
     26 C12         8.2940   -4.3690   -2.6630 c3        1 MOL     -0.128511
     27 N3          7.8660   -5.0150   -1.4040 n4        1 MOL     -0.295267
     28 H8         10.6640    1.1420   -0.2330 hn        1 MOL      0.263611
     29 H9          8.0390    0.7170   -1.4730 h1        1 MOL      0.102497
     30 H10        10.3050   -1.1400   -0.7470 hc        1 MOL      0.130992
     31 H11         9.8810   -0.3900   -2.3810 hc        1 MOL      0.130992
     32 H12         7.7260   -1.6010   -2.2360 hc        1 MOL     -0.007697
     33 H13         8.2510   -2.2770   -0.6560 hc        1 MOL     -0.007697
     34 H14         9.9530   -3.5530   -1.5980 hc        1 MOL      0.005296
     35 H15         9.7060   -2.9130   -3.1590 hc        1 MOL      0.005296
     36 H16         8.8350   -5.0290   -3.3310 hx        1 MOL      0.114823
     37 H17         7.4070   -3.9980   -3.1760 hx        1 MOL      0.114823
     38 H18         8.6470   -5.3690   -0.8810 hn        1 MOL      0.294943
     39 H19         7.2890   -4.4860   -0.7540 hn        1 MOL      0.294943
     40 H20         7.2910   -5.8300   -1.6070 hn        1 MOL      0.294943
     41 N4          6.6820    0.5280    0.5120 n         1 MOL     -0.548061
     42 C13         5.5630    0.3260    1.4500 c3        1 MOL     -0.147688
     43 C14         4.2300    0.1550    0.7120 c         1 MOL      0.635573
     44 O6          4.1460    0.5300   -0.4640 o         1 MOL     -0.551039
     45 C15         5.4520    1.4630    2.4240 c3        1 MOL      0.428003
     46 C16         5.5220    2.8610    1.9210 c         1 MOL      0.643989
     47 O7          5.1420    3.1000    0.7770 o         1 MOL     -0.798906
     48 O8          6.0170    3.7180    2.6910 o         1 MOL     -0.798906
     49 H21         6.3740    1.0390   -0.3030 hn        1 MOL      0.308046
     50 H22         5.7930   -0.6350    1.9150 h1        1 MOL      0.096226
     51 H23         6.3230    1.3840    3.0790 hc        1 MOL     -0.046081
     52 H24         4.6610    1.3890    3.1750 hc        1 MOL     -0.046081
     53 N5          3.1580   -0.3940    1.2930 n         1 MOL     -0.627674
     54 C17         3.1100   -1.0560    2.6110 c3        1 MOL      0.033281
     55 C18         2.9880   -2.6330    2.4660 c         1 MOL      0.686504
     56 O9          3.2760   -3.2840    1.4310 o         1 MOL     -0.585155
     57 H25         2.2810   -0.5430    0.8200 hn        1 MOL      0.390600
     58 H26         2.2420   -0.6860    3.1500 h1        1 MOL      0.050286
     59 H27         3.9970   -0.8650    3.2080 h1        1 MOL      0.050286
     60 N6          2.5150   -3.2580    3.5610 n         1 MOL     -0.577537
     61 C19         2.4280   -4.7380    3.7870 c3        1 MOL      0.086480
     62 C20         1.3580   -5.2590    2.8010 c         1 MOL      0.604727
     63 O10         0.1550   -4.9220    2.9730 o         1 MOL     -0.549948
     64 C21         2.3520   -5.0770    5.2990 c3        1 MOL     -0.201455
     65 C22         2.1860   -6.5800    5.5120 c         1 MOL      0.672914
     66 O11         1.6260   -6.9820    6.5690 o         1 MOL     -0.664198
     67 O12         2.5800   -7.3110    4.6110 o         1 MOL     -0.664198
     68 H28         2.0420   -2.7770    4.3050 hn        1 MOL      0.288892
     69 H29         3.3370   -5.2140    3.3920 h1        1 MOL      0.006149
     70 H30         1.4370   -4.6710    5.7170 hc        1 MOL      0.067084
     71 H31         3.1410   -4.6550    5.9150 hc        1 MOL      0.067084
     72 N7          1.5940   -6.1880    1.8780 n         1 MOL     -0.176172
     73 C23         0.5750   -6.8170    1.0560 c3        1 MOL     -0.341051
     74 C24         0.2200   -5.9750   -0.1830 c         1 MOL      0.654142
     75 O13        -0.6580   -6.3450   -0.9420 o         1 MOL     -0.598476
     76 H32         2.5200   -6.5930    1.8220 hn        1 MOL      0.206873
     77 H33        -0.3850   -6.9600    1.5450 h1        1 MOL      0.153874
     78 H34         1.0190   -7.6940    0.5800 h1        1 MOL      0.153874
     79 N8          0.9770   -4.9010   -0.4710 n         1 MOL     -0.343434
     80 C25         0.9180   -4.0110   -1.6640 c3        1 MOL      0.000544
     81 C26         0.2870   -2.7050   -1.2570 c         1 MOL      0.520349
     82 O14         0.2140   -2.4280   -0.0540 o         1 MOL     -0.483870
     83 C27         2.3930   -3.8280   -2.2380 c3        1 MOL      0.399814
     84 C28         3.0150   -5.1050   -2.8630 c3        1 MOL     -0.381452
     85 O15         2.4040   -2.8370   -3.2070 oh        1 MOL     -0.633718
     86 H35         1.5120   -4.5540    0.3200 hn        1 MOL      0.089677
     87 H36         0.3530   -4.4590   -2.4770 h1        1 MOL      0.079370
     88 H37         3.1100   -3.4400   -1.5140 h1        1 MOL     -0.001718
     89 H38         3.2550   -2.9640   -3.6500 ho        1 MOL      0.384475
     90 H39         4.1060   -5.0890   -2.7870 hc        1 MOL      0.083188
     91 H40         2.7810   -5.9840   -2.2660 hc        1 MOL      0.083188
     92 H41         2.6320   -5.2650   -3.8740 hc        1 MOL      0.083188
     93 N9         -0.2680   -1.9670   -2.1870 n         1 MOL     -0.438932
     94 C29        -0.9140   -0.5830   -1.8890 c3        1 MOL     -0.099067
     95 C30        -2.3720   -0.7010   -1.4080 c         1 MOL      0.620649
     96 O16        -2.6500   -0.0170   -0.4340 o         1 MOL     -0.541592
     97 C31        -0.7950    0.4600   -3.0830 c3        1 MOL      0.267423
     98 C32         0.5620    0.5080   -3.7870 c3        1 MOL      0.014639
     99 C33        -1.2650    1.8260   -2.5360 c3        1 MOL     -0.215587
    100 C34         1.6840    1.0360   -2.7760 c3        1 MOL     -0.184978
    101 H42        -0.4830   -2.4200   -3.0620 hn        1 MOL      0.289528
    102 H43        -0.4540   -0.0850   -1.0340 h1        1 MOL      0.086449
    103 H44        -1.4920    0.2630   -3.8990 hc        1 MOL     -0.046470
    104 H45         0.4530    1.1460   -4.6670 hc        1 MOL     -0.018919
    105 H46         0.7460   -0.5030   -4.1300 hc        1 MOL     -0.018919
    106 H47        -2.2900    1.7320   -2.1740 hc        1 MOL      0.047928
    107 H48        -0.6000    2.2550   -1.7750 hc        1 MOL      0.047928
    108 H49        -1.2030    2.5900   -3.3060 hc        1 MOL      0.047928
    109 H50         2.6350    0.8320   -3.2700 hc        1 MOL      0.055015
    110 H51         1.5060    2.1000   -2.5920 hc        1 MOL      0.055015
    111 H52         1.6650    0.4670   -1.8540 hc        1 MOL      0.055015
    112 N10        -3.1760   -1.5670   -1.9600 n         1 MOL     -0.538695
    113 C35        -4.4450   -1.9720   -1.3630 c3        1 MOL      0.075646
    114 C36        -5.6400   -1.9780   -2.3950 c         1 MOL      0.515465
    115 O17        -5.3940   -2.1710   -3.6040 o         1 MOL     -0.516833
    116 C37        -4.3630   -3.4260   -0.8570 c3        1 MOL      0.323012
    117 C38        -3.1440   -3.6670    0.0300 c3        1 MOL     -0.334874
    118 O18        -5.5390   -3.7880   -0.1470 oh        1 MOL     -0.652888
    119 H53        -2.7290   -2.0810   -2.7070 hn        1 MOL      0.269402
    120 H54        -4.7230   -1.3240   -0.5270 h1        1 MOL      0.093867
    121 H55        -4.2440   -4.0980   -1.7110 h1        1 MOL      0.007034
    122 H56        -5.6200   -4.7460   -0.1440 ho        1 MOL      0.416164
    123 H57        -2.1980   -3.5890   -0.5000 hc        1 MOL      0.112978
    124 H58        -3.2270   -3.0590    0.9370 hc        1 MOL      0.112978
    125 H59        -3.1240   -4.7310    0.2780 hc        1 MOL      0.112978
    126 N11        -6.8530   -1.8120   -1.8670 n         1 MOL     -0.460324
    127 C39        -8.0190   -1.7730   -2.7520 c3        1 MOL     -0.174687
    128 C40        -9.0290   -0.6350   -2.3480 c         1 MOL      0.669731
    129 O19        -9.8220   -0.3340   -3.1520 o         1 MOL     -0.588907
    130 C41        -8.8930   -3.0940   -2.8370 c3        1 MOL      0.519564
    131 C42        -9.8170   -3.2870   -1.6610 c3        1 MOL     -0.428815
    132 O20        -8.1110   -4.2550   -2.9130 oh        1 MOL     -0.612648
    133 H60        -6.9860   -1.7310   -0.8670 hn        1 MOL      0.339530
    134 H61        -7.6350   -1.5900   -3.7560 h1        1 MOL      0.104604
    135 H62        -9.5090   -3.0460   -3.7370 h1        1 MOL     -0.043139
    136 H63        -7.9100   -4.3810   -3.8430 ho        1 MOL      0.381113
    137 H64        -9.1660   -3.3880   -0.7850 hc        1 MOL      0.108209
    138 H65       -10.5790   -2.5220   -1.5780 hc        1 MOL      0.108209
    139 H66       -10.3830   -4.1840   -1.9190 hc        1 MOL      0.108209
    140 N12        -8.8850   -0.0300   -1.2170 n         1 MOL     -0.449957
    141 C43        -9.8720    0.9500   -0.6670 c3        1 MOL      0.069745
    142 C44        -9.1490    1.8900    0.2620 c         1 MOL      0.511888
    143 O21        -8.4580    1.3970    1.1540 o         1 MOL     -0.492503
    144 C45       -11.0910    0.2950    0.0340 c3        1 MOL     -0.252080
    145 C46       -12.0020    1.3940    0.6320 c3        1 MOL      0.318773
    146 C47       -13.2840    0.7910    1.1770 c3        1 MOL     -0.093060
    147 C48       -14.1840    1.7040    1.9890 c3        1 MOL      0.009092
    148 N13       -15.5890    1.2630    2.0290 n4        1 MOL     -0.170946
    149 H67        -8.0610   -0.2820   -0.6910 hn        1 MOL      0.222690
    150 H68       -10.2470    1.5360   -1.5080 h1        1 MOL      0.075098
    151 H69       -10.6720   -0.4170    0.7470 hc        1 MOL      0.077656
    152 H70       -11.6050   -0.2810   -0.7370 hc        1 MOL      0.077656
    153 H71       -12.2670    2.0490   -0.1990 hc        1 MOL     -0.065517
    154 H72       -11.4540    2.0460    1.3110 hc        1 MOL     -0.065517
    155 H73       -12.8990    0.0260    1.8420 hc        1 MOL      0.038472
    156 H74       -13.8400    0.2630    0.4000 hc        1 MOL      0.038472
    157 H75       -14.3470    2.6880    1.5430 hx        1 MOL      0.085030
    158 H76       -13.7240    1.8380    2.9800 hx        1 MOL      0.085030
    159 H77       -15.8780    0.6750    2.8020 hn        1 MOL      0.225900
    160 H78       -16.2430    2.0300    2.0750 hn        1 MOL      0.225900
    161 H79       -15.7940    0.7480    1.1930 hn        1 MOL      0.225900
    162 N14        -9.2470    3.1750    0.1470 n         1 MOL     -0.463470
    163 C49        -8.8420    4.0800    1.1860 c3        1 MOL      0.164628
    164 C50        -7.4010    3.9240    1.7920 c         1 MOL      0.438899
    165 O22        -7.3760    3.8700    2.9960 o         1 MOL     -0.513779
    166 C51        -9.1820    5.4780    0.7830 c3        1 MOL      0.105452
    167 C52        -9.0220    6.6210    1.8490 c3        1 MOL     -0.259740
    168 C53        -9.7200    7.9290    1.4510 c         1 MOL      0.681070
    169 O23        -9.0950    9.0130    1.3560 o         1 MOL     -0.647349
    170 O24       -10.9860    7.9220    1.1750 o         1 MOL     -0.647349
    171 H80        -9.6430    3.5820   -0.6800 hn        1 MOL      0.263777
    172 H81        -9.5570    3.8930    1.9820 h1        1 MOL      0.049421
    173 H82       -10.2190    5.4900    0.4570 hc        1 MOL     -0.027250
    174 H83        -8.6310    5.7350   -0.1150 hc        1 MOL     -0.027250
    175 H84        -7.9430    6.7560    1.8980 hc        1 MOL      0.061783
    176 H85        -9.4070    6.2570    2.7970 hc        1 MOL      0.061783
    177 N15        -6.2560    4.0170    1.0460 n         1 MOL     -0.426639
    178 C54        -6.2740    4.2980   -0.4610 c3        1 MOL      0.001323
    179 H86        -6.2480    3.3540   -1.0050 h1        1 MOL      0.044303
    180 H87        -7.1840    4.8400   -0.7190 h1        1 MOL      0.044303
    181 H88        -5.4040    4.8960   -0.7300 h1        1 MOL      0.044303
    182 H89        -5.3170    3.7730    1.3010 hn        1 MOL      0.321308
    183 Ca1         6.4990    5.4110    0.5260 Ca        1 MOL      1.707945
    184 O25         6.3840    4.4780   -1.9530 oh        1 MOL     -0.889991
    185 H90         6.6340    4.7630   -2.8350 ho        1 MOL      0.443038
    186 H91         5.7710    3.7540   -2.0930 ho        1 MOL      0.443038
@<TRIPOS>BOND
     1    1    2 1   
     2    1    4 1   
     3    1    5 1   
     4    1    6 1   
     5    2    3 2   
     6    2    7 1   
     7    7    8 1   
     8    7   15 1   
     9    8    9 1   
    10    8   11 1   
    11    8   16 1   
    12    9   10 2   
    13    9   19 1   
    14   11   12 1   
    15   11   17 1   
    16   11   18 1   
    17   12   13 1   
    18   12   14 1   
    19   19   20 1   
    20   19   28 1   
    21   20   21 1   
    22   20   23 1   
    23   20   29 1   
    24   21   22 2   
    25   21   41 1   
    26   23   24 1   
    27   23   30 1   
    28   23   31 1   
    29   24   25 1   
    30   24   32 1   
    31   24   33 1   
    32   25   26 1   
    33   25   34 1   
    34   25   35 1   
    35   26   27 1   
    36   26   36 1   
    37   26   37 1   
    38   27   38 1   
    39   27   39 1   
    40   27   40 1   
    41   41   42 1   
    42   41   49 1   
    43   42   43 1   
    44   42   45 1   
    45   42   50 1   
    46   43   44 2   
    47   43   53 1   
    48   45   46 1   
    49   45   51 1   
    50   45   52 1   
    51   46   47 1   
    52   46   48 1   
    53   53   54 1   
    54   53   57 1   
    55   54   55 1   
    56   54   58 1   
    57   54   59 1   
    58   55   56 2   
    59   55   60 1   
    60   60   61 1   
    61   60   68 1   
    62   61   62 1   
    63   61   64 1   
    64   61   69 1   
    65   62   63 2   
    66   62   72 1   
    67   64   65 1   
    68   64   70 1   
    69   64   71 1   
    70   65   66 1   
    71   65   67 1   
    72   72   73 1   
    73   72   76 1   
    74   73   74 1   
    75   73   77 1   
    76   73   78 1   
    77   74   75 2   
    78   74   79 1   
    79   79   80 1   
    80   79   86 1   
    81   80   81 1   
    82   80   83 1   
    83   80   87 1   
    84   81   82 2   
    85   81   93 1   
    86   83   84 1   
    87   83   85 1   
    88   83   88 1   
    89   84   90 1   
    90   84   91 1   
    91   84   92 1   
    92   85   89 1   
    93   93   94 1   
    94   93  101 1   
    95   94   95 1   
    96   94   97 1   
    97   94  102 1   
    98   95   96 2   
    99   95  112 1   
   100   97   98 1   
   101   97   99 1   
   102   97  103 1   
   103   98  100 1   
   104   98  104 1   
   105   98  105 1   
   106   99  106 1   
   107   99  107 1   
   108   99  108 1   
   109  100  109 1   
   110  100  110 1   
   111  100  111 1   
   112  112  113 1   
   113  112  119 1   
   114  113  114 1   
   115  113  116 1   
   116  113  120 1   
   117  114  115 2   
   118  114  126 1   
   119  116  117 1   
   120  116  118 1   
   121  116  121 1   
   122  117  123 1   
   123  117  124 1   
   124  117  125 1   
   125  118  122 1   
   126  126  127 1   
   127  126  133 1   
   128  127  128 1   
   129  127  130 1   
   130  127  134 1   
   131  128  129 2   
   132  128  140 1   
   133  130  131 1   
   134  130  132 1   
   135  130  135 1   
   136  131  137 1   
   137  131  138 1   
   138  131  139 1   
   139  132  136 1   
   140  140  141 1   
   141  140  149 1   
   142  141  142 1   
   143  141  144 1   
   144  141  150 1   
   145  142  143 2   
   146  142  162 1   
   147  144  145 1   
   148  144  151 1   
   149  144  152 1   
   150  145  146 1   
   151  145  153 1   
   152  145  154 1   
   153  146  147 1   
   154  146  155 1   
   155  146  156 1   
   156  147  148 1   
   157  147  157 1   
   158  147  158 1   
   159  148  159 1   
   160  148  160 1   
   161  148  161 1   
   162  162  163 1   
   163  162  171 1   
   164  163  164 1   
   165  163  166 1   
   166  163  172 1   
   167  164  165 2   
   168  164  177 1   
   169  166  167 1   
   170  166  173 1   
   171  166  174 1   
   172  167  168 1   
   173  167  175 1   
   174  167  176 1   
   175  168  169 1   
   176  168  170 1   
   177  177  178 1   
   178  177  182 1   
   179  178  179 1   
   180  178  180 1   
   181  178  181 1   
   182  184  185 1   
   183  184  186 1   
@<TRIPOS>SUBSTRUCTURE
     1 MOL         1 TEMP              0 ****  ****    0 ROOT
