@<TRIPOS>MOLECULE
MOL
  181   177     1     0     0
SMALL
resp


@<TRIPOS>ATOM
      1 C1          6.9970    3.6960    5.0630 c3        1 MOL     -0.402298
      2 C2          6.3890    2.5130    4.3460 c         1 MOL      0.765941
      3 O1          5.1740    2.3730    4.2930 o         1 MOL     -0.602403
      4 H1          7.7550    3.3460    5.7630 hc        1 MOL      0.110251
      5 H2          7.4580    4.3650    4.3360 hc        1 MOL      0.110251
      6 H3          6.2190    4.2310    5.6080 hc        1 MOL      0.110251
      7 N1          7.0580    1.5740    3.6780 n         1 MOL     -0.605188
      8 C3          8.4570    1.6360    3.2680 c3        1 MOL     -0.000920
      9 C4          8.9270    0.2810    2.8910 c         1 MOL      0.610574
     10 O2          8.5680   -0.6590    3.5220 o         1 MOL     -0.479260
     11 C5          8.5840    2.6630    2.1080 c3        1 MOL     -0.240671
     12 C6          7.6820    2.3070    0.9010 c         1 MOL      0.659134
     13 O3          6.5770    2.9000    0.6510 o         1 MOL     -0.707077
     14 O4          7.8250    1.3050    0.2070 o         1 MOL     -0.707077
     15 H4          6.4700    0.8670    3.2560 hn        1 MOL      0.370969
     16 H5          9.0580    1.8760    4.1450 h1        1 MOL      0.106835
     17 H6          9.6060    2.6390    1.7420 hc        1 MOL      0.045441
     18 H7          8.4770    3.5990    2.6430 hc        1 MOL      0.045441
     19 N2          9.8940    0.1220    1.9940 n         1 MOL     -0.664854
     20 C7         10.5250   -1.1630    1.5630 c3        1 MOL      0.239352
     21 C8          9.4870   -2.3360    1.1280 c         1 MOL      0.453865
     22 O5          9.8430   -3.4900    1.0440 o         1 MOL     -0.531949
     23 C9         11.6030   -1.5580    2.5580 c3        1 MOL     -0.258570
     24 H8         10.1930    0.9240    1.4480 hn        1 MOL      0.360608
     25 H9         11.0460   -0.9090    0.6400 h1        1 MOL      0.024000
     26 H10        11.2350   -1.6290    3.5840 hc        1 MOL      0.072955
     27 H11        11.9760   -2.5660    2.3620 hc        1 MOL      0.072955
     28 H12        12.4050   -0.8260    2.5160 hc        1 MOL      0.072955
     29 N3          8.2450   -1.9770    0.7740 n         1 MOL     -0.399643
     30 C10         7.2580   -2.8850    0.1110 c3        1 MOL      0.397370
     31 C11         6.8300   -2.4260   -1.2840 c         1 MOL      0.293932
     32 O6          6.8830   -1.2610   -1.6800 o         1 MOL     -0.530174
     33 C12         6.1210   -3.0760    0.9880 c3        1 MOL      0.003369
     34 C13         5.4070   -1.8170    1.4880 c         1 MOL      0.624591
     35 O7          4.9760   -1.9070    2.6930 o         1 MOL     -0.666239
     36 O8          5.3800   -0.7870    0.8330 o         1 MOL     -0.666239
     37 H13         7.9810   -1.0220    0.9990 hn        1 MOL      0.202001
     38 H14         7.6960   -3.8560   -0.1160 h1        1 MOL     -0.050637
     39 H15         6.4620   -3.6920    1.8240 hc        1 MOL     -0.023489
     40 H16         5.3820   -3.6750    0.4550 hc        1 MOL     -0.023489
     41 N4          6.4890   -3.3860   -2.1370 n         1 MOL     -0.286510
     42 C14         5.9760   -3.1630   -3.5080 c3        1 MOL     -0.275214
     43 C15         4.5580   -2.7400   -3.6540 c         1 MOL      0.553868
     44 O9          4.1020   -2.8950   -4.7940 o         1 MOL     -0.540958
     45 H17         6.4620   -4.3060   -1.7270 hn        1 MOL      0.259271
     46 H18         5.9790   -4.0990   -4.0500 h1        1 MOL      0.152765
     47 H19         6.6680   -2.6330   -4.1610 h1        1 MOL      0.152765
     48 N5          3.9190   -2.3130   -2.5720 n         1 MOL     -0.281120
     49 C16         2.5400   -1.9150   -2.6000 c3        1 MOL     -0.054774
     50 C17         2.3260   -0.4890   -2.0410 c         1 MOL      0.649209
     51 O10         2.9550    0.0560   -1.1560 o         1 MOL     -0.556021
     52 C18         1.5960   -2.8850   -1.8050 c3        1 MOL     -0.041708
     53 C19         1.3270   -4.2470   -2.3830 c         1 MOL      0.657776
     54 N6          1.3050   -5.2650   -1.5810 n         1 MOL     -0.826970
     55 O11         1.1790   -4.3560   -3.5830 o         1 MOL     -0.536353
     56 H20         4.4790   -2.1970   -1.7330 hn        1 MOL      0.153732
     57 H21         2.2280   -1.9220   -3.6410 h1        1 MOL      0.058710
     58 H22         0.6230   -2.3920   -1.7660 hc        1 MOL      0.030760
     59 H23         1.9150   -2.9310   -0.7640 hc        1 MOL      0.030760
     60 H24         1.4750   -5.1570   -0.6000 hn        1 MOL      0.385941
     61 H25         0.9560   -6.1490   -1.9250 hn        1 MOL      0.385941
     62 N7          1.2630    0.1360   -2.6260 n         1 MOL     -0.650939
     63 C20         0.7440    1.5100   -2.4660 c3        1 MOL      0.452680
     64 C21         0.3010    2.2160   -3.7580 c         1 MOL      0.414834
     65 O12         0.4690    1.6710   -4.8270 o         1 MOL     -0.533737
     66 H26         0.7290   -0.3640   -3.3220 hn        1 MOL      0.346773
     67 H27         1.4430    2.1220   -1.8930 h1        1 MOL     -0.039988
     68 H28        -0.1020    1.5160   -1.7790 h1        1 MOL     -0.039988
     69 N8         -0.3990    3.3420   -3.6300 n         1 MOL     -0.434218
     70 C22        -0.5940    4.2100   -2.3720 c3        1 MOL     -0.416719
     71 C23        -1.9180    3.7660   -1.6790 c         1 MOL      0.648708
     72 O13        -2.9980    3.7200   -2.2610 o         1 MOL     -0.525093
     73 C24        -0.7200    5.6820   -2.8050 c3        1 MOL      0.462920
     74 C25        -1.0920    6.7170   -1.6870 c3        1 MOL     -0.441295
     75 O14         0.5060    6.1330   -3.2520 oh        1 MOL     -0.610733
     76 H29        -0.7850    3.6790   -4.4930 hn        1 MOL      0.334204
     77 H30         0.2630    4.1410   -1.7090 h1        1 MOL      0.241147
     78 H31        -1.4390    5.7250   -3.6140 h1        1 MOL     -0.000797
     79 H32         0.2090    6.6220   -4.0230 ho        1 MOL      0.368480
     80 H33        -0.3940    6.6650   -0.8480 hc        1 MOL      0.125782
     81 H34        -0.9750    7.7000   -2.1390 hc        1 MOL      0.125782
     82 H35        -2.1450    6.6060   -1.4300 hc        1 MOL      0.125782
     83 N9         -1.8550    3.3920   -0.3850 n         1 MOL     -0.455703
     84 C26        -3.0120    2.9930    0.5040 c3        1 MOL      0.062889
     85 C27        -3.7270    4.2390    0.9540 c         1 MOL      0.496738
     86 O15        -3.0530    5.1730    1.4790 o         1 MOL     -0.596386
     87 C28        -2.3340    2.1920    1.6500 c3        1 MOL      0.106318
     88 C29        -1.9260    0.7930    1.0620 c3        1 MOL      0.082934
     89 C30        -3.1110    2.0240    2.9880 c3        1 MOL     -0.257751
     90 C31        -1.1530   -0.0250    2.0340 c3        1 MOL     -0.249390
     91 H36        -0.9270    3.4370    0.0190 hn        1 MOL      0.215700
     92 H37        -3.7060    2.3600   -0.0460 h1        1 MOL      0.060975
     93 H38        -1.4680    2.8150    1.8630 hc        1 MOL      0.012782
     94 H39        -1.3430    0.9160    0.1460 hc        1 MOL     -0.007112
     95 H40        -2.8880    0.3450    0.8170 hc        1 MOL     -0.007112
     96 H41        -3.4080    2.8760    3.5830 hc        1 MOL      0.072184
     97 H42        -4.0530    1.5640    2.6830 hc        1 MOL      0.072184
     98 H43        -2.5510    1.3650    3.6560 hc        1 MOL      0.072184
     99 H44        -1.8400   -0.4340    2.7800 hc        1 MOL      0.055566
    100 H45        -0.6350   -0.7870    1.4680 hc        1 MOL      0.055566
    101 H46        -0.4150    0.5780    2.5580 hc        1 MOL      0.055566
    102 N10        -5.0000    4.3880    0.6350 n         1 MOL     -0.340558
    103 C32        -5.9010    3.5560   -0.1850 c3        1 MOL      0.106274
    104 C33        -6.4400    2.3090    0.5000 c         1 MOL      0.662088
    105 O16        -6.2090    2.1300    1.6950 o         1 MOL     -0.573758
    106 C34        -7.0550    4.3290   -0.8680 c3        1 MOL     -0.295882
    107 C35        -7.9940    4.9790    0.1900 c         1 MOL      0.720975
    108 O17        -9.0840    4.4120    0.5940 o         1 MOL     -0.712941
    109 O18        -7.7000    6.1620    0.5400 o         1 MOL     -0.712941
    110 H47        -5.3640    5.3230    0.7680 hn        1 MOL      0.251268
    111 H48        -5.3350    3.2260   -1.0500 h1        1 MOL      0.037449
    112 H49        -7.7330    3.7290   -1.4800 hc        1 MOL      0.065176
    113 H50        -6.5160    5.0300   -1.4860 hc        1 MOL      0.065176
    114 N11        -7.2860    1.5250   -0.1720 n         1 MOL     -0.754179
    115 C36        -7.8900    0.2940    0.3690 c3        1 MOL      0.530080
    116 C37        -8.1650   -0.5380   -0.8330 c         1 MOL      0.250530
    117 O19        -8.9090    0.0040   -1.7260 o         1 MOL     -0.551295
    118 C38        -9.1930    0.5350    1.1950 c3        1 MOL     -0.376513
    119 C39        -9.8080   -0.6560    1.8190 ca        1 MOL      0.058067
    120 C40       -10.8290   -1.4120    1.1230 ca        1 MOL     -0.105154
    121 C41        -9.4630   -1.0220    3.1160 ca        1 MOL     -0.105154
    122 C42       -11.3070   -2.5800    1.6750 ca        1 MOL     -0.147974
    123 C43        -9.9450   -2.2060    3.6500 ca        1 MOL     -0.147974
    124 C44       -10.8200   -2.9980    2.8680 ca        1 MOL     -0.127062
    125 H51        -7.4050    1.7230   -1.1580 hn        1 MOL      0.347452
    126 H52        -7.1990   -0.2410    1.0180 h1        1 MOL     -0.051489
    127 H53        -9.9790    0.9880    0.6030 hc        1 MOL      0.159773
    128 H54        -8.8190    1.1760    1.9890 hc        1 MOL      0.159773
    129 H55       -11.1680   -1.1220    0.1400 ha        1 MOL      0.112687
    130 H56        -8.7540   -0.4430    3.6970 ha        1 MOL      0.112687
    131 H57       -11.9510   -3.2350    1.1130 ha        1 MOL      0.104743
    132 H58        -9.4870   -2.5780    4.5500 ha        1 MOL      0.104743
    133 H59       -11.1610   -3.9900    3.1520 ha        1 MOL      0.088613
    134 N12        -7.8080   -1.7880   -0.9340 n         1 MOL      0.012039
    135 C45        -7.1300   -2.6720    0.0360 c3        1 MOL      0.152839
    136 C46        -5.6660   -2.2890    0.2120 c         1 MOL      0.310444
    137 O20        -5.3050   -1.1940   -0.0840 o         1 MOL     -0.514275
    138 C47        -7.3340   -4.1290   -0.4540 c3        1 MOL     -0.188347
    139 C48        -8.5420   -4.0410   -1.3770 c3        1 MOL     -0.060380
    140 C49        -8.3650   -2.6420   -1.9720 c3        1 MOL      0.075572
    141 H60        -7.5860   -2.5860    1.0230 h1        1 MOL     -0.019047
    142 H61        -6.4370   -4.3230   -1.0380 hc        1 MOL      0.083502
    143 H62        -7.4140   -4.8950    0.3250 hc        1 MOL      0.083502
    144 H63        -8.4770   -4.8070   -2.1540 hc        1 MOL      0.027260
    145 H64        -9.4500   -4.2040   -0.8010 hc        1 MOL      0.027260
    146 H65        -7.7490   -2.5960   -2.8670 h1        1 MOL      0.024983
    147 H66        -9.3630   -2.3100   -2.2480 h1        1 MOL      0.024983
    148 N13        -4.7780   -3.1910    0.6780 n         1 MOL     -0.092345
    149 C50        -3.4180   -2.9080    1.1850 c3        1 MOL      0.284691
    150 C51        -2.9600   -3.6460    2.4310 c         1 MOL      0.301934
    151 O21        -1.8100   -4.1820    2.4540 o         1 MOL     -0.510396
    152 C52        -2.4510   -2.8580    0.0180 c3        1 MOL     -0.281587
    153 C53        -2.1900   -4.1590   -0.6860 c3        1 MOL     -0.013345
    154 C54        -3.4060   -4.9080   -1.2420 c         1 MOL      0.675419
    155 O22        -4.0540   -4.4720   -2.2370 o         1 MOL     -0.732097
    156 O23        -3.8300   -5.9280   -0.6410 o         1 MOL     -0.732097
    157 H67        -5.1670   -4.1160    0.7960 hn        1 MOL      0.128920
    158 H68        -3.4010   -1.8780    1.5270 h1        1 MOL      0.069833
    159 H69        -1.4710   -2.6130    0.4270 hc        1 MOL      0.084900
    160 H70        -2.7590   -2.1410   -0.7330 hc        1 MOL      0.084900
    161 H71        -1.7470   -4.8310    0.0460 hc        1 MOL     -0.026676
    162 H72        -1.4470   -4.0420   -1.4810 hc        1 MOL     -0.026676
    163 N14        -3.7470   -3.6780    3.5230 n         1 MOL     -0.356849
    164 C55        -4.8230   -2.7560    3.8640 c3        1 MOL     -0.014402
    165 H73        -5.6430   -2.8780    3.1560 h1        1 MOL      0.042398
    166 H74        -5.1790   -2.9690    4.8710 h1        1 MOL      0.042398
    167 H75        -4.4530   -1.7320    3.8180 h1        1 MOL      0.042398
    168 H76        -3.4150   -4.3770    4.1720 hn        1 MOL      0.278239
    169 Ca1         5.4120    1.0990   -0.9080 Ca        1 MOL      1.757192
    170 O24         3.9680    1.9600    0.9940 oh        1 MOL     -0.825915
    171 H77         3.9170    1.4010    1.7710 ho        1 MOL      0.406930
    172 H78         4.1080    2.8400    1.3330 ho        1 MOL      0.406930
    173 O25         4.8280    3.5350   -1.7780 oh        1 MOL     -0.825915
    174 H79         5.2530    4.3890   -1.8080 ho        1 MOL      0.406930
    175 H80         4.2070    3.5450   -2.5070 ho        1 MOL      0.406930
    176 O26         4.6920    0.8650   -3.4690 oh        1 MOL     -0.825915
    177 H81         5.3860    0.5830   -4.0700 ho        1 MOL      0.406930
    178 H82         4.0560    1.2980   -4.0220 ho        1 MOL      0.406930
    179 O27         7.3770    2.1370   -2.6040 oh        1 MOL     -0.825915
    180 H83         7.8240    2.7430   -2.0120 ho        1 MOL      0.406930
    181 H84         7.6050    2.4380   -3.4850 ho        1 MOL      0.406930
@<TRIPOS>BOND
     1    1    2 1   
     2    1    4 1   
     3    1    5 1   
     4    1    6 1   
     5    2    3 2   
     6    2    7 1   
     7    7    8 1   
     8    7   15 1   
     9    8    9 1   
    10    8   11 1   
    11    8   16 1   
    12    9   10 2   
    13    9   19 1   
    14   11   12 1   
    15   11   17 1   
    16   11   18 1   
    17   12   13 1   
    18   12   14 1   
    19   19   20 1   
    20   19   24 1   
    21   20   21 1   
    22   20   23 1   
    23   20   25 1   
    24   21   22 2   
    25   21   29 1   
    26   23   26 1   
    27   23   27 1   
    28   23   28 1   
    29   29   30 1   
    30   29   37 1   
    31   30   31 1   
    32   30   33 1   
    33   30   38 1   
    34   31   32 2   
    35   31   41 1   
    36   33   34 1   
    37   33   39 1   
    38   33   40 1   
    39   34   35 1   
    40   34   36 1   
    41   41   42 1   
    42   41   45 1   
    43   42   43 1   
    44   42   46 1   
    45   42   47 1   
    46   43   44 2   
    47   43   48 1   
    48   48   49 1   
    49   48   56 1   
    50   49   50 1   
    51   49   52 1   
    52   49   57 1   
    53   50   51 2   
    54   50   62 1   
    55   52   53 1   
    56   52   58 1   
    57   52   59 1   
    58   53   54 1   
    59   53   55 2   
    60   54   60 1   
    61   54   61 1   
    62   62   63 1   
    63   62   66 1   
    64   63   64 1   
    65   63   67 1   
    66   63   68 1   
    67   64   65 2   
    68   64   69 1   
    69   69   70 1   
    70   69   76 1   
    71   70   71 1   
    72   70   73 1   
    73   70   77 1   
    74   71   72 2   
    75   71   83 1   
    76   73   74 1   
    77   73   75 1   
    78   73   78 1   
    79   74   80 1   
    80   74   81 1   
    81   74   82 1   
    82   75   79 1   
    83   83   84 1   
    84   83   91 1   
    85   84   85 1   
    86   84   87 1   
    87   84   92 1   
    88   85   86 2   
    89   85  102 1   
    90   87   88 1   
    91   87   89 1   
    92   87   93 1   
    93   88   90 1   
    94   88   94 1   
    95   88   95 1   
    96   89   96 1   
    97   89   97 1   
    98   89   98 1   
    99   90   99 1   
   100   90  100 1   
   101   90  101 1   
   102  102  103 1   
   103  102  110 1   
   104  103  104 1   
   105  103  106 1   
   106  103  111 1   
   107  104  105 2   
   108  104  114 1   
   109  106  107 1   
   110  106  112 1   
   111  106  113 1   
   112  107  108 1   
   113  107  109 1   
   114  114  115 1   
   115  114  125 1   
   116  115  116 1   
   117  115  118 1   
   118  115  126 1   
   119  116  117 2   
   120  116  134 1   
   121  118  119 1   
   122  118  127 1   
   123  118  128 1   
   124  119  120 ar  
   125  119  121 ar  
   126  120  122 ar  
   127  120  129 1   
   128  121  123 ar  
   129  121  130 1   
   130  122  124 ar  
   131  122  131 1   
   132  123  124 ar  
   133  123  132 1   
   134  124  133 1   
   135  134  135 1   
   136  134  140 1   
   137  135  136 1   
   138  135  138 1   
   139  135  141 1   
   140  136  137 2   
   141  136  148 1   
   142  138  139 1   
   143  138  142 1   
   144  138  143 1   
   145  139  140 1   
   146  139  144 1   
   147  139  145 1   
   148  140  146 1   
   149  140  147 1   
   150  148  149 1   
   151  148  157 1   
   152  149  150 1   
   153  149  152 1   
   154  149  158 1   
   155  150  151 2   
   156  150  163 1   
   157  152  153 1   
   158  152  159 1   
   159  152  160 1   
   160  153  154 1   
   161  153  161 1   
   162  153  162 1   
   163  154  155 1   
   164  154  156 1   
   165  163  164 1   
   166  163  168 1   
   167  164  165 1   
   168  164  166 1   
   169  164  167 1   
   170  170  171 1   
   171  170  172 1   
   172  173  174 1   
   173  173  175 1   
   174  176  177 1   
   175  176  178 1   
   176  179  180 1   
   177  179  181 1   
@<TRIPOS>SUBSTRUCTURE
     1 MOL         1 TEMP              0 ****  ****    0 ROOT
