@<TRIPOS>MOLECULE
MOL
  178   175     1     0     0
SMALL
resp


@<TRIPOS>ATOM
      1 C1          1.3230   -5.6280    3.8950 c3        1 MOL     -0.405756
      2 C2          2.6330   -5.3770    3.2070 c         1 MOL      0.792535
      3 O1          2.8400   -5.8550    2.0950 o         1 MOL     -0.613808
      4 H1          0.9150   -4.6830    4.2530 hc        1 MOL      0.094742
      5 H2          0.6240   -6.0820    3.1930 hc        1 MOL      0.094742
      6 H3          1.4780   -6.2980    4.7400 hc        1 MOL      0.094742
      7 N1          3.5000   -4.5630    3.7280 n         1 MOL     -0.650756
      8 C3          4.8040   -4.2850    3.0720 c3        1 MOL      0.203234
      9 C4          4.6750   -3.5180    1.6970 c         1 MOL      0.497747
     10 O2          3.8260   -2.5750    1.6240 o         1 MOL     -0.548945
     11 C5          5.7800   -3.5910    3.9610 c3        1 MOL     -0.189230
     12 C6          7.0820   -3.1800    3.3190 c         1 MOL      0.725901
     13 O3          7.5130   -1.9890    3.4700 o         1 MOL     -0.722398
     14 O4          7.7420   -4.0570    2.7030 o         1 MOL     -0.722398
     15 H4          3.3310   -4.0120    4.5590 hn        1 MOL      0.327111
     16 H5          5.2570   -5.2260    2.7650 h1        1 MOL      0.016627
     17 H6          5.9780   -4.0990    4.9110 hc        1 MOL      0.009644
     18 H7          5.2130   -2.7300    4.3210 hc        1 MOL      0.009644
     19 N2          5.4790   -3.8380    0.7290 n         1 MOL     -0.429647
     20 C7          5.2690   -3.4260   -0.6830 c3        1 MOL      0.387219
     21 C8          4.0390   -4.2170   -1.3580 c         1 MOL      0.289097
     22 O5          3.6240   -5.3040   -0.9690 o         1 MOL     -0.479731
     23 C9          6.5790   -3.7060   -1.3600 c3        1 MOL     -0.227662
     24 H8          6.2940   -4.4100    0.8920 hn        1 MOL      0.256084
     25 H9          5.0890   -2.3610   -0.5790 h1        1 MOL      0.059594
     26 H10         7.3870   -3.0830   -0.9830 hc        1 MOL      0.049276
     27 H11         6.8040   -4.7740   -1.2950 hc        1 MOL      0.049276
     28 H12         6.5400   -3.4770   -2.4360 hc        1 MOL      0.049276
     29 N3          3.5230   -3.8640   -2.5400 n         1 MOL     -0.216652
     30 C10         3.9760   -2.7560   -3.3900 c3        1 MOL     -0.116922
     31 C11         4.0630   -1.3170   -2.7270 c         1 MOL      0.200233
     32 O6          3.3910   -0.9850   -1.7630 o         1 MOL     -0.435702
     33 C12         2.9290   -2.5710   -4.4980 c3        1 MOL     -0.191332
     34 C13         1.4280   -2.4310   -4.0790 c         1 MOL      0.752715
     35 O7          1.1300   -1.3370   -3.5330 o         1 MOL     -0.688736
     36 O8          0.6440   -3.3880   -4.3240 o         1 MOL     -0.688736
     37 H13         2.8480   -4.5360   -2.8990 hn        1 MOL      0.251478
     38 H14         4.9120   -3.0260   -3.8840 h1        1 MOL      0.112029
     39 H15         3.0820   -3.4710   -5.0990 hc        1 MOL      0.029593
     40 H16         3.2000   -1.7220   -5.1240 hc        1 MOL      0.029593
     41 N4          4.9040   -0.4600   -3.2710 n         1 MOL     -0.087682
     42 C14         5.2020    0.8120   -2.7250 c3        1 MOL     -0.392157
     43 C15         6.0860    0.7850   -1.4700 c         1 MOL      0.798941
     44 O9          6.6470   -0.2220   -1.0290 o         1 MOL     -0.555587
     45 H17         5.4680   -0.8180   -4.0260 hn        1 MOL      0.226269
     46 H18         4.2870    1.3130   -2.4050 h1        1 MOL      0.164987
     47 H19         5.7550    1.3540   -3.4920 h1        1 MOL      0.164987
     48 N5          6.1460    1.8940   -0.7190 n         1 MOL     -0.680547
     49 C16         5.7330    3.2980   -0.9670 c3        1 MOL     -0.021205
     50 C17         5.2800    4.0700    0.3060 c         1 MOL      0.715517
     51 O10         5.0800    5.2920    0.2970 o         1 MOL     -0.569510
     52 C18         6.9400    4.0120   -1.5590 c3        1 MOL     -0.320405
     53 C19         7.4530    3.3980   -2.8560 c         1 MOL      0.735493
     54 N6          6.9320    3.6670   -4.0550 n         1 MOL     -0.860787
     55 O11         8.4300    2.6450   -2.8060 o         1 MOL     -0.556193
     56 H20         6.7020    1.7140    0.1000 hn        1 MOL      0.347779
     57 H21         4.8840    3.4260   -1.6410 h1        1 MOL      0.099102
     58 H22         7.7580    4.0400   -0.8490 hc        1 MOL      0.100503
     59 H23         6.8000    5.0610   -1.8190 hc        1 MOL      0.100503
     60 H24         6.1720    4.3210   -4.1070 hn        1 MOL      0.383363
     61 H25         7.2870    3.2570   -4.9080 hn        1 MOL      0.383363
     62 N7          5.0590    3.3200    1.3860 n         1 MOL     -0.380874
     63 C20         4.8560    3.8770    2.7080 c3        1 MOL     -0.262592
     64 C21         3.4390    4.3980    2.9950 c         1 MOL      0.574784
     65 O12         3.1750    4.7300    4.1510 o         1 MOL     -0.569043
     66 H26         5.0360    2.3160    1.3770 hn        1 MOL      0.325723
     67 H27         5.4700    4.7810    2.7450 h1        1 MOL      0.142831
     68 H28         5.1030    3.1520    3.4780 h1        1 MOL      0.142831
     69 N8          2.5440    4.4550    2.0070 n         1 MOL     -0.305672
     70 C22         1.1420    4.9090    2.0270 c3        1 MOL      0.102266
     71 C23         0.1020    3.8570    1.9380 c         1 MOL      0.449442
     72 O13         0.4990    2.7360    1.5060 o         1 MOL     -0.503627
     73 C24         1.0400    5.9450    0.8800 c3        1 MOL      0.405374
     74 C25         2.0970    7.1170    0.9680 c3        1 MOL     -0.424098
     75 O14         1.1550    5.3680   -0.3330 oh        1 MOL     -0.588984
     76 H29         2.8870    4.0490    1.1480 hn        1 MOL      0.213275
     77 H30         0.9360    5.3860    2.9930 h1        1 MOL      0.011311
     78 H31         0.0620    6.4080    1.0210 h1        1 MOL     -0.066682
     79 H32         0.3790    5.6640   -0.8080 ho        1 MOL      0.418695
     80 H33         2.0020    7.7480    1.8570 hc        1 MOL      0.098631
     81 H34         3.0260    6.5590    0.9380 hc        1 MOL      0.098631
     82 H35         1.8810    7.7230    0.0880 hc        1 MOL      0.098631
     83 N9         -1.1930    4.2420    2.1900 n         1 MOL     -0.423534
     84 C26        -2.3800    3.4900    1.7490 c3        1 MOL      0.009125
     85 C27        -2.6560    3.7270    0.3150 c         1 MOL      0.358181
     86 O15        -2.9400    4.9110   -0.0750 o         1 MOL     -0.610141
     87 C28        -3.6390    3.8760    2.4810 c3        1 MOL      0.229074
     88 C29        -4.8720    3.0890    2.0410 c3        1 MOL      0.150755
     89 C30        -3.4730    3.5710    3.9860 c3        1 MOL     -0.341962
     90 C31        -6.1670    3.4090    2.7650 c3        1 MOL     -0.455425
     91 H36        -1.3160    5.2060    2.4700 hn        1 MOL      0.283854
     92 H37        -2.1740    2.4420    1.9310 h1        1 MOL      0.171833
     93 H38        -3.7500    4.9460    2.3730 hc        1 MOL     -0.021071
     94 H39        -4.7540    2.0080    1.9810 hc        1 MOL     -0.005757
     95 H40        -4.9980    3.4610    1.0210 hc        1 MOL     -0.005757
     96 H41        -2.4890    3.8680    4.3470 hc        1 MOL      0.064656
     97 H42        -4.2660    4.1340    4.4840 hc        1 MOL      0.064656
     98 H43        -3.5940    2.5260    4.2840 hc        1 MOL      0.064656
     99 H44        -6.9840    2.9050    2.2600 hc        1 MOL      0.103196
    100 H45        -6.0910    3.1980    3.8300 hc        1 MOL      0.103196
    101 H46        -6.4260    4.4420    2.5150 hc        1 MOL      0.103196
    102 N10        -2.5720    2.7320   -0.5240 n         1 MOL     -0.120334
    103 C32        -2.7790    2.7650   -1.9750 c3        1 MOL      0.066469
    104 C33        -3.8070    1.7070   -2.4630 c         1 MOL      0.591549
    105 O16        -3.9960    1.5970   -3.6550 o         1 MOL     -0.557131
    106 C34        -1.3500    2.7770   -2.6660 c3        1 MOL     -0.134608
    107 C35        -0.4720    1.5430   -2.5100 c         1 MOL      0.806669
    108 O17         0.7810    1.5420   -2.3050 o         1 MOL     -0.763499
    109 O18        -1.1030    0.4810   -2.4120 o         1 MOL     -0.763499
    110 H47        -2.3750    1.8350   -0.0960 hn        1 MOL      0.166701
    111 H48        -3.2140    3.6880   -2.3450 h1        1 MOL      0.069808
    112 H49        -0.7610    3.5930   -2.2510 hc        1 MOL      0.006330
    113 H50        -1.4360    2.9700   -3.7410 hc        1 MOL      0.006330
    114 N11        -4.6310    1.2290   -1.5290 n         1 MOL     -0.691936
    115 C36        -5.8100    0.3570   -1.7450 c3        1 MOL      0.605135
    116 C37        -5.7770   -0.8480   -0.8350 c         1 MOL      0.224589
    117 O19        -6.5610   -0.9130    0.1220 o         1 MOL     -0.472928
    118 C38        -7.1320    1.1850   -1.7370 c3        1 MOL     -0.351272
    119 C39        -8.2570    0.2550   -2.2740 ca        1 MOL      0.167253
    120 C40        -9.1030   -0.3420   -1.4120 ca        1 MOL     -0.188818
    121 C41        -8.4700    0.1120   -3.6530 ca        1 MOL     -0.188818
    122 C42       -10.2500   -1.0640   -1.8450 ca        1 MOL     -0.108947
    123 C43        -9.6390   -0.5380   -4.1070 ca        1 MOL     -0.108947
    124 C44       -10.5650   -1.0760   -3.1490 ca        1 MOL     -0.133292
    125 H51        -4.2160    1.2960   -0.6100 hn        1 MOL      0.223328
    126 H52        -5.8640   -0.0660   -2.7510 h1        1 MOL     -0.054430
    127 H53        -7.0380    2.0300   -2.4260 hc        1 MOL      0.108917
    128 H54        -7.3330    1.5820   -0.7400 hc        1 MOL      0.108917
    129 H55        -8.9430   -0.2830   -0.3420 ha        1 MOL      0.123675
    130 H56        -7.7750    0.6120   -4.3040 ha        1 MOL      0.123675
    131 H57       -10.9210   -1.5810   -1.1880 ha        1 MOL      0.099494
    132 H58        -9.8770   -0.6050   -5.1610 ha        1 MOL      0.099494
    133 H59       -11.4380   -1.5690   -3.5210 ha        1 MOL      0.095502
    134 N12        -4.9440   -1.9020   -1.0500 n         1 MOL     -0.073564
    135 C45        -5.0800   -3.2100   -0.4170 c3        1 MOL     -0.056995
    136 C46        -4.7940   -3.2160    1.1390 c         1 MOL      0.216491
    137 O20        -5.1020   -4.2170    1.7980 o         1 MOL     -0.481349
    138 C47        -3.8580   -3.9600   -1.0810 c3        1 MOL     -0.265799
    139 C48        -3.8050   -3.3870   -2.4730 c3        1 MOL     -0.076621
    140 C49        -4.0510   -1.8900   -2.2060 c3        1 MOL      0.075430
    141 H60        -6.0500   -3.6070   -0.7130 h1        1 MOL      0.114602
    142 H61        -3.0160   -3.7620   -0.4140 hc        1 MOL      0.122416
    143 H62        -4.0090   -5.0340   -1.0510 hc        1 MOL      0.122416
    144 H63        -2.9350   -3.5840   -3.0980 hc        1 MOL      0.048387
    145 H64        -4.6200   -3.7540   -3.0980 hc        1 MOL      0.048387
    146 H65        -3.2020   -1.2790   -1.8850 h1        1 MOL      0.050090
    147 H66        -4.5510   -1.5030   -3.0890 h1        1 MOL      0.050090
    148 N13        -4.3690   -2.1090    1.7150 n         1 MOL      0.048426
    149 C50        -4.2870   -1.8790    3.1500 c3        1 MOL     -0.248710
    150 C51        -5.6310   -1.7620    3.8770 c         1 MOL      0.452600
    151 O21        -5.8730   -2.5790    4.7110 o         1 MOL     -0.518904
    152 C52        -3.4610   -0.5800    3.4340 c3        1 MOL      0.148977
    153 C53        -2.1030   -0.4490    2.7650 c3        1 MOL     -0.460931
    154 C54        -2.0710   -0.2190    1.2780 c         1 MOL      0.566329
    155 O22        -1.0290   -0.6350    0.6730 o         1 MOL     -0.647946
    156 O23        -3.0940    0.2100    0.6770 o         1 MOL     -0.647946
    157 H67        -4.0840   -1.4260    1.0140 hn        1 MOL      0.327090
    158 H68        -3.7270   -2.7500    3.5070 h1        1 MOL      0.128414
    159 H69        -3.4510   -0.3850    4.4990 hc        1 MOL     -0.007593
    160 H70        -3.9470    0.3470    3.1160 hc        1 MOL     -0.007593
    161 H71        -1.6110   -1.4150    2.8840 hc        1 MOL      0.129524
    162 H72        -1.5750    0.3770    3.2400 hc        1 MOL      0.129524
    163 N14        -6.5980   -1.0500    3.2970 n         1 MOL     -0.128427
    164 C55        -7.9790   -0.8240    3.7990 c3        1 MOL     -0.185859
    165 H73        -8.1540    0.2470    3.9090 h1        1 MOL      0.079543
    166 H74        -8.6970   -1.2380    3.0910 h1        1 MOL      0.079543
    167 H75        -8.0990   -1.3120    4.7660 h1        1 MOL      0.079543
    168 H76        -6.4680   -0.7010    2.3620 hn        1 MOL      0.138019
    169 Ca1         0.7250   -0.7880   -1.0840 Ca        1 MOL      1.775456
    170 O24         1.4760   -2.8940    0.3410 oh        1 MOL     -0.885765
    171 H77         2.1670   -3.0370    0.9870 ho        1 MOL      0.404137
    172 H78         1.2710   -3.7730    0.0110 ho        1 MOL      0.404137
    173 O25        -0.5470   -3.0270   -1.8540 oh        1 MOL     -0.885765
    174 H79        -0.1060   -3.3510   -2.6380 ho        1 MOL      0.404137
    175 H80        -1.3850   -3.5030   -1.8460 ho        1 MOL      0.404137
    176 O26         1.9200    0.8480    0.4420 oh        1 MOL     -0.885765
    177 H81         1.3610    1.4490    0.9480 ho        1 MOL      0.404137
    178 H82         2.6900    0.7250    0.9810 ho        1 MOL      0.404137
@<TRIPOS>BOND
     1    1    2 1   
     2    1    4 1   
     3    1    5 1   
     4    1    6 1   
     5    2    3 2   
     6    2    7 1   
     7    7    8 1   
     8    7   15 1   
     9    8    9 1   
    10    8   11 1   
    11    8   16 1   
    12    9   10 2   
    13    9   19 1   
    14   11   12 1   
    15   11   17 1   
    16   11   18 1   
    17   12   13 1   
    18   12   14 1   
    19   19   20 1   
    20   19   24 1   
    21   20   21 1   
    22   20   23 1   
    23   20   25 1   
    24   21   22 2   
    25   21   29 1   
    26   23   26 1   
    27   23   27 1   
    28   23   28 1   
    29   29   30 1   
    30   29   37 1   
    31   30   31 1   
    32   30   33 1   
    33   30   38 1   
    34   31   32 2   
    35   31   41 1   
    36   33   34 1   
    37   33   39 1   
    38   33   40 1   
    39   34   35 1   
    40   34   36 1   
    41   41   42 1   
    42   41   45 1   
    43   42   43 1   
    44   42   46 1   
    45   42   47 1   
    46   43   44 2   
    47   43   48 1   
    48   48   49 1   
    49   48   56 1   
    50   49   50 1   
    51   49   52 1   
    52   49   57 1   
    53   50   51 2   
    54   50   62 1   
    55   52   53 1   
    56   52   58 1   
    57   52   59 1   
    58   53   54 1   
    59   53   55 2   
    60   54   60 1   
    61   54   61 1   
    62   62   63 1   
    63   62   66 1   
    64   63   64 1   
    65   63   67 1   
    66   63   68 1   
    67   64   65 2   
    68   64   69 1   
    69   69   70 1   
    70   69   76 1   
    71   70   71 1   
    72   70   73 1   
    73   70   77 1   
    74   71   72 2   
    75   71   83 1   
    76   73   74 1   
    77   73   75 1   
    78   73   78 1   
    79   74   80 1   
    80   74   81 1   
    81   74   82 1   
    82   75   79 1   
    83   83   84 1   
    84   83   91 1   
    85   84   85 1   
    86   84   87 1   
    87   84   92 1   
    88   85   86 2   
    89   85  102 1   
    90   87   88 1   
    91   87   89 1   
    92   87   93 1   
    93   88   90 1   
    94   88   94 1   
    95   88   95 1   
    96   89   96 1   
    97   89   97 1   
    98   89   98 1   
    99   90   99 1   
   100   90  100 1   
   101   90  101 1   
   102  102  103 1   
   103  102  110 1   
   104  103  104 1   
   105  103  106 1   
   106  103  111 1   
   107  104  105 2   
   108  104  114 1   
   109  106  107 1   
   110  106  112 1   
   111  106  113 1   
   112  107  108 1   
   113  107  109 1   
   114  114  115 1   
   115  114  125 1   
   116  115  116 1   
   117  115  118 1   
   118  115  126 1   
   119  116  117 2   
   120  116  134 1   
   121  118  119 1   
   122  118  127 1   
   123  118  128 1   
   124  119  120 ar  
   125  119  121 ar  
   126  120  122 ar  
   127  120  129 1   
   128  121  123 ar  
   129  121  130 1   
   130  122  124 ar  
   131  122  131 1   
   132  123  124 ar  
   133  123  132 1   
   134  124  133 1   
   135  134  135 1   
   136  134  140 1   
   137  135  136 1   
   138  135  138 1   
   139  135  141 1   
   140  136  137 2   
   141  136  148 1   
   142  138  139 1   
   143  138  142 1   
   144  138  143 1   
   145  139  140 1   
   146  139  144 1   
   147  139  145 1   
   148  140  146 1   
   149  140  147 1   
   150  148  149 1   
   151  148  157 1   
   152  149  150 1   
   153  149  152 1   
   154  149  158 1   
   155  150  151 2   
   156  150  163 1   
   157  152  153 1   
   158  152  159 1   
   159  152  160 1   
   160  153  154 1   
   161  153  161 1   
   162  153  162 1   
   163  154  155 1   
   164  154  156 1   
   165  163  164 1   
   166  163  168 1   
   167  164  165 1   
   168  164  166 1   
   169  164  167 1   
   170  170  171 1   
   171  170  172 1   
   172  173  174 1   
   173  173  175 1   
   174  176  177 1   
   175  176  178 1   
@<TRIPOS>SUBSTRUCTURE
     1 MOL         1 TEMP              0 ****  ****    0 ROOT
