@<TRIPOS>MOLECULE
MOL
  181   177     1     0     0
SMALL
resp


@<TRIPOS>ATOM
      1 C1          0.4270    7.5400   -1.8310 c3        1 MOL     -0.331191
      2 C2          1.8180    7.3420   -1.1280 c         1 MOL      0.672982
      3 O1          1.8550    7.8670    0.0210 o         1 MOL     -0.609189
      4 H1          0.0910    8.5670   -1.6860 hc        1 MOL      0.080619
      5 H2          0.5260    7.3370   -2.8970 hc        1 MOL      0.080619
      6 H3         -0.3010    6.8550   -1.3950 hc        1 MOL      0.080619
      7 N1          2.8350    6.8290   -1.6960 n         1 MOL     -0.643531
      8 C3          4.1920    6.8980   -1.2510 c3        1 MOL      0.340848
      9 C4          4.4190    5.6040   -0.4730 c         1 MOL      0.662693
     10 O2          4.5610    4.5670   -1.0290 o         1 MOL     -0.588621
     11 C5          5.1850    7.1750   -2.3510 c3        1 MOL     -0.226398
     12 C6          6.6500    7.2070   -1.9350 c         1 MOL      0.715224
     13 O3          7.5130    7.1310   -2.8560 o         1 MOL     -0.732579
     14 O4          7.0070    7.1740   -0.7440 o         1 MOL     -0.732579
     15 H4          2.7070    6.4570   -2.6260 hn        1 MOL      0.314942
     16 H5          4.2910    7.7880   -0.6300 h1        1 MOL      0.002944
     17 H6          5.1100    8.1610   -2.8060 hc        1 MOL      0.011510
     18 H7          5.0430    6.4670   -3.1760 hc        1 MOL      0.011510
     19 N2          4.4190    5.6960    0.8630 n         1 MOL     -0.666594
     20 C7          4.4740    4.5390    1.7660 c3        1 MOL      0.606943
     21 C8          3.1090    3.7690    1.8930 c         1 MOL      0.167040
     22 O5          2.0220    4.3100    1.7470 o         1 MOL     -0.508533
     23 C9          4.9890    4.9940    3.1450 c3        1 MOL     -0.115713
     24 H8          4.4270    6.5950    1.3140 hn        1 MOL      0.272803
     25 H9          5.2350    3.9340    1.2610 h1        1 MOL     -0.068779
     26 H10         5.2150    4.1290    3.7650 hc        1 MOL      0.023378
     27 H11         5.9330    5.5320    3.0350 hc        1 MOL      0.023378
     28 H12         4.3170    5.6540    3.6950 hc        1 MOL      0.023378
     29 N3          3.1040    2.5440    2.3360 n         1 MOL     -0.153723
     30 C10         4.1970    1.6820    2.7620 c3        1 MOL      0.009734
     31 C11         4.4770    0.4750    1.8030 c         1 MOL      0.327864
     32 O6          3.4950   -0.1050    1.2930 o         1 MOL     -0.551330
     33 C12         3.8780    1.0870    4.1200 c3        1 MOL     -0.166009
     34 C13         2.5260    0.3240    4.2710 c         1 MOL      0.700820
     35 O7          2.4280   -0.2950    5.3130 o         1 MOL     -0.661699
     36 O8          1.7260    0.2090    3.3480 o         1 MOL     -0.661699
     37 H13         2.2050    2.0730    2.3860 hn        1 MOL      0.170907
     38 H14         5.0870    2.3000    2.8470 h1        1 MOL      0.047217
     39 H15         3.8170    2.0390    4.6500 hc        1 MOL      0.020308
     40 H16         4.7620    0.5640    4.4750 hc        1 MOL      0.020308
     41 N4          5.7210    0.1880    1.5360 n         1 MOL     -0.295319
     42 C14         6.1820   -0.7860    0.5290 c3        1 MOL      0.326274
     43 C15         7.6090   -1.2110    0.4870 c         1 MOL      0.342851
     44 O9          8.4620   -0.4780    0.9700 o         1 MOL     -0.512586
     45 H17         6.4400    0.7850    1.9240 hn        1 MOL      0.227731
     46 H18         5.8610   -0.3580   -0.4170 h1        1 MOL     -0.030609
     47 H19         5.6570   -1.7290    0.6430 h1        1 MOL     -0.030609
     48 N5          8.0020   -2.3310   -0.0870 n         1 MOL     -0.348977
     49 C16         7.1670   -3.3640   -0.6750 c3        1 MOL      0.099290
     50 C17         6.3140   -2.8820   -1.9010 c         1 MOL      0.465698
     51 O10         6.5680   -1.8540   -2.5490 o         1 MOL     -0.493125
     52 C18         7.9050   -4.6190   -1.0360 c3        1 MOL     -0.419860
     53 C19         7.1050   -5.8370   -0.8280 c         1 MOL      0.680541
     54 N6          7.0370   -6.3480    0.4220 n         1 MOL     -0.835329
     55 O11         6.5190   -6.2850   -1.7840 o         1 MOL     -0.545247
     56 H20         8.9980   -2.4830    0.0100 hn        1 MOL      0.281860
     57 H21         6.6510   -3.6220    0.2510 h1        1 MOL      0.045342
     58 H22         8.7860   -4.6370   -0.3890 hc        1 MOL      0.151869
     59 H23         8.2810   -4.4910   -2.0560 hc        1 MOL      0.151869
     60 H24         7.5480   -5.9620    1.2040 hn        1 MOL      0.390082
     61 H25         6.5030   -7.1910    0.5290 hn        1 MOL      0.390082
     62 N7          5.3130   -3.6610   -2.2270 n         1 MOL     -0.308186
     63 C20         4.2720   -3.2780   -3.2100 c3        1 MOL     -0.230996
     64 C21         2.8550   -3.9040   -2.9400 c         1 MOL      0.491908
     65 O12         1.9330   -3.7780   -3.7960 o         1 MOL     -0.518498
     66 H26         5.2230   -4.5670   -1.7840 hn        1 MOL      0.248818
     67 H27         4.5780   -3.6380   -4.1910 h1        1 MOL      0.157491
     68 H28         4.1000   -2.1970   -3.1710 h1        1 MOL      0.157491
     69 N8          2.6900   -4.6310   -1.7910 n         1 MOL     -0.207845
     70 C22         1.3850   -5.2920   -1.4960 c3        1 MOL     -0.254993
     71 C23         0.4750   -4.1970   -1.0390 c         1 MOL      0.609215
     72 O13         0.8790   -3.2150   -0.4570 o         1 MOL     -0.582130
     73 C24         1.5590   -6.4990   -0.5420 c3        1 MOL      0.444535
     74 C25         2.6090   -7.5410   -0.8580 c3        1 MOL     -0.484136
     75 O14         1.7620   -5.9210    0.6440 oh        1 MOL     -0.582494
     76 H29         3.3900   -4.6890   -1.0700 hn        1 MOL      0.158833
     77 H30         1.0390   -5.6650   -2.4680 h1        1 MOL      0.106623
     78 H31         0.6160   -7.0480   -0.4460 h1        1 MOL     -0.014176
     79 H32         1.4840   -6.5290    1.3310 ho        1 MOL      0.412394
     80 H33         2.4490   -7.9400   -1.8620 hc        1 MOL      0.122175
     81 H34         3.5590   -7.0110   -0.8110 hc        1 MOL      0.122175
     82 H35         2.6750   -8.3780   -0.1610 hc        1 MOL      0.122175
     83 N9         -0.8360   -4.3510   -1.2350 n         1 MOL     -0.248230
     84 C26        -2.0290   -3.4890   -0.9570 c3        1 MOL     -0.113708
     85 C27        -2.4890   -3.6360    0.4770 c         1 MOL      0.259084
     86 O15        -2.5310   -4.7570    1.0490 o         1 MOL     -0.547390
     87 C28        -3.1080   -3.9370   -1.9660 c3        1 MOL      0.240016
     88 C29        -4.2300   -2.8490   -1.9230 c3        1 MOL      0.003454
     89 C30        -2.4760   -3.9400   -3.3800 c3        1 MOL     -0.315001
     90 C31        -5.4320   -3.2550   -2.7640 c3        1 MOL     -0.198628
     91 H36        -1.1110   -5.2590   -1.5850 hn        1 MOL      0.191755
     92 H37        -1.7170   -2.4570   -1.0920 h1        1 MOL      0.112248
     93 H38        -3.4800   -4.9470   -1.7720 hc        1 MOL      0.007882
     94 H39        -3.7270   -1.9510   -2.2770 hc        1 MOL     -0.006072
     95 H40        -4.4930   -2.6380   -0.8970 hc        1 MOL     -0.006072
     96 H41        -3.2850   -4.1940   -4.0770 hc        1 MOL      0.070168
     97 H42        -2.0760   -2.9490   -3.5580 hc        1 MOL      0.070168
     98 H43        -1.7080   -4.6960   -3.5560 hc        1 MOL      0.070168
     99 H44        -5.9970   -4.0900   -2.3380 hc        1 MOL      0.037969
    100 H45        -6.1870   -2.4800   -2.8570 hc        1 MOL      0.037969
    101 H46        -5.1620   -3.6220   -3.7490 hc        1 MOL      0.037969
    102 N10        -2.7920   -2.5280    1.1140 n         1 MOL     -0.046023
    103 C32        -3.4150   -2.3760    2.4210 c3        1 MOL      0.220652
    104 C33        -4.8880   -1.8290    2.3450 c         1 MOL      0.202433
    105 O16        -5.7080   -2.0830    3.2480 o         1 MOL     -0.496872
    106 C34        -2.5410   -1.5890    3.4230 c3        1 MOL     -0.123900
    107 C35        -1.1950   -2.1750    3.5120 c         1 MOL      0.614084
    108 O17        -0.3750   -2.1540    2.5700 o         1 MOL     -0.660324
    109 O18        -0.8870   -2.7120    4.6210 o         1 MOL     -0.660324
    110 H47        -2.6410   -1.6820    0.5890 hn        1 MOL      0.141094
    111 H48        -3.4900   -3.3510    2.8950 h1        1 MOL      0.040307
    112 H49        -3.0810   -1.7540    4.3590 hc        1 MOL      0.026140
    113 H50        -2.5650   -0.5240    3.1990 hc        1 MOL      0.026140
    114 N11        -5.1660   -0.9540    1.3440 n         1 MOL     -0.249113
    115 C36        -6.4430   -0.2970    1.1240 c3        1 MOL      0.485580
    116 C37        -6.3600    1.1480    0.5920 c         1 MOL      0.165819
    117 O19        -6.9880    1.4960   -0.4160 o         1 MOL     -0.444465
    118 C38        -7.4600   -1.1290    0.3020 c3        1 MOL     -0.535387
    119 C39        -8.9270   -0.6940    0.4200 ca        1 MOL      0.311896
    120 C40        -9.4580   -0.3610    1.6680 ca        1 MOL     -0.220205
    121 C41        -9.7810   -0.9550   -0.6300 ca        1 MOL     -0.220205
    122 C42       -10.7830   -0.0090    1.8270 ca        1 MOL     -0.124137
    123 C43       -11.1610   -0.5550   -0.5310 ca        1 MOL     -0.124137
    124 C44       -11.5800   -0.0190    0.6650 ca        1 MOL     -0.115184
    125 H51        -4.4410   -0.7530    0.6730 hn        1 MOL      0.271910
    126 H52        -6.9260   -0.2240    2.0930 h1        1 MOL     -0.006098
    127 H53        -7.4710   -2.1200    0.7620 hc        1 MOL      0.142733
    128 H54        -7.1570   -1.1830   -0.7420 hc        1 MOL      0.142733
    129 H55        -8.9610   -0.3810    2.6260 ha        1 MOL      0.135091
    130 H56        -9.4340   -1.4100   -1.5470 ha        1 MOL      0.135091
    131 H57       -11.2200    0.2250    2.7890 ha        1 MOL      0.113851
    132 H58       -11.8240   -0.6630   -1.3720 ha        1 MOL      0.113851
    133 H59       -12.6460    0.1330    0.6700 ha        1 MOL      0.074734
    134 N12        -5.4800    1.9960    1.2020 n         1 MOL     -0.077672
    135 C45        -5.1240    3.3710    0.7530 c3        1 MOL      0.032495
    136 C46        -4.8220    3.4310   -0.7280 c         1 MOL      0.280073
    137 O20        -4.9970    4.4680   -1.3180 o         1 MOL     -0.483092
    138 C47        -3.9140    3.8430    1.5540 c3        1 MOL      0.079801
    139 C48        -4.2680    3.1610    2.9230 c3        1 MOL     -0.058136
    140 C49        -4.8700    1.8560    2.4730 c3        1 MOL     -0.103157
    141 H60        -5.9000    4.1070    0.9640 h1        1 MOL      0.063518
    142 H61        -2.9780    3.4890    1.1230 hc        1 MOL     -0.002165
    143 H62        -3.9320    4.9150    1.7460 hc        1 MOL     -0.002165
    144 H63        -3.4000    3.0490    3.5790 hc        1 MOL      0.046682
    145 H64        -4.9350    3.7790    3.5320 hc        1 MOL      0.046682
    146 H65        -4.1200    1.0700    2.3820 h1        1 MOL      0.055561
    147 H66        -5.5540    1.5040    3.2420 h1        1 MOL      0.055561
    148 N13        -4.2740    2.3420   -1.3260 n         1 MOL      0.051432
    149 C50        -3.8930    2.4640   -2.7190 c3        1 MOL     -0.369228
    150 C51        -5.1870    2.5890   -3.6340 c         1 MOL      0.522726
    151 O21        -5.1680    3.2270   -4.6720 o         1 MOL     -0.560806
    152 C52        -2.9890    1.2190   -3.1540 c3        1 MOL     -0.030600
    153 C53        -1.8140    0.9080   -2.3210 c3        1 MOL     -0.080691
    154 C54        -2.0510    0.0440   -1.0850 c         1 MOL      0.985627
    155 O22        -1.0100   -0.2220   -0.4420 o         1 MOL     -0.917636
    156 O23        -3.0960   -0.1610   -0.5240 o         1 MOL     -0.917636
    157 H67        -3.8950    1.5690   -0.8050 hn        1 MOL      0.238953
    158 H68        -3.2420    3.3090   -2.9040 h1        1 MOL      0.145385
    159 H69        -2.5040    1.3900   -4.1120 hc        1 MOL      0.039750
    160 H70        -3.6680    0.3610   -3.2390 hc        1 MOL      0.039750
    161 H71        -1.4530    1.8110   -1.8420 hc        1 MOL      0.022362
    162 H72        -1.0850    0.3580   -2.9250 hc        1 MOL      0.022362
    163 N14        -6.2550    1.9240   -3.2560 n         1 MOL     -0.142517
    164 C55        -7.6000    2.0400   -3.8680 c3        1 MOL     -0.274779
    165 H73        -7.9570    3.0650   -3.7690 h1        1 MOL      0.107132
    166 H74        -7.5420    1.7770   -4.9250 h1        1 MOL      0.107132
    167 H75        -8.2910    1.3650   -3.3620 h1        1 MOL      0.107132
    168 H76        -6.1780    1.4400   -2.3710 hn        1 MOL      0.156119
    169 Ca1         1.0310   -0.8350    0.9610 Ca        1 MOL      1.734590
    170 O24         2.7440   -2.9580    2.0890 oh        1 MOL     -0.769551
    171 H77         3.5120   -3.0430    1.5110 ho        1 MOL      0.391690
    172 H78         2.9890   -3.4380    2.8760 ho        1 MOL      0.391690
    173 O25        -1.1630    0.7610    1.9490 oh        1 MOL     -0.769551
    174 H79        -0.9420    1.6890    1.9750 ho        1 MOL      0.391690
    175 H80        -1.4680    0.6090    1.0560 ho        1 MOL      0.391690
    176 O26         1.2110    1.7670    0.1480 oh        1 MOL     -0.769551
    177 H81         0.8800    2.5170    0.6480 ho        1 MOL      0.391690
    178 H82         1.8850    2.1440   -0.4330 ho        1 MOL      0.391690
    179 O27         2.3610   -0.5100   -1.3460 oh        1 MOL     -0.769551
    180 H83         2.2440    0.3520   -1.7510 ho        1 MOL      0.391690
    181 H84         3.2560   -0.7600   -1.5630 ho        1 MOL      0.391690
@<TRIPOS>BOND
     1    1    2 1   
     2    1    4 1   
     3    1    5 1   
     4    1    6 1   
     5    2    3 2   
     6    2    7 1   
     7    7    8 1   
     8    7   15 1   
     9    8    9 1   
    10    8   11 1   
    11    8   16 1   
    12    9   10 2   
    13    9   19 1   
    14   11   12 1   
    15   11   17 1   
    16   11   18 1   
    17   12   13 1   
    18   12   14 1   
    19   19   20 1   
    20   19   24 1   
    21   20   21 1   
    22   20   23 1   
    23   20   25 1   
    24   21   22 2   
    25   21   29 1   
    26   23   26 1   
    27   23   27 1   
    28   23   28 1   
    29   29   30 1   
    30   29   37 1   
    31   30   31 1   
    32   30   33 1   
    33   30   38 1   
    34   31   32 2   
    35   31   41 1   
    36   33   34 1   
    37   33   39 1   
    38   33   40 1   
    39   34   35 1   
    40   34   36 1   
    41   41   42 1   
    42   41   45 1   
    43   42   43 1   
    44   42   46 1   
    45   42   47 1   
    46   43   44 2   
    47   43   48 1   
    48   48   49 1   
    49   48   56 1   
    50   49   50 1   
    51   49   52 1   
    52   49   57 1   
    53   50   51 2   
    54   50   62 1   
    55   52   53 1   
    56   52   58 1   
    57   52   59 1   
    58   53   54 1   
    59   53   55 2   
    60   54   60 1   
    61   54   61 1   
    62   62   63 1   
    63   62   66 1   
    64   63   64 1   
    65   63   67 1   
    66   63   68 1   
    67   64   65 2   
    68   64   69 1   
    69   69   70 1   
    70   69   76 1   
    71   70   71 1   
    72   70   73 1   
    73   70   77 1   
    74   71   72 2   
    75   71   83 1   
    76   73   74 1   
    77   73   75 1   
    78   73   78 1   
    79   74   80 1   
    80   74   81 1   
    81   74   82 1   
    82   75   79 1   
    83   83   84 1   
    84   83   91 1   
    85   84   85 1   
    86   84   87 1   
    87   84   92 1   
    88   85   86 2   
    89   85  102 1   
    90   87   88 1   
    91   87   89 1   
    92   87   93 1   
    93   88   90 1   
    94   88   94 1   
    95   88   95 1   
    96   89   96 1   
    97   89   97 1   
    98   89   98 1   
    99   90   99 1   
   100   90  100 1   
   101   90  101 1   
   102  102  103 1   
   103  102  110 1   
   104  103  104 1   
   105  103  106 1   
   106  103  111 1   
   107  104  105 2   
   108  104  114 1   
   109  106  107 1   
   110  106  112 1   
   111  106  113 1   
   112  107  108 1   
   113  107  109 1   
   114  114  115 1   
   115  114  125 1   
   116  115  116 1   
   117  115  118 1   
   118  115  126 1   
   119  116  117 2   
   120  116  134 1   
   121  118  119 1   
   122  118  127 1   
   123  118  128 1   
   124  119  120 ar  
   125  119  121 ar  
   126  120  122 ar  
   127  120  129 1   
   128  121  123 ar  
   129  121  130 1   
   130  122  124 ar  
   131  122  131 1   
   132  123  124 ar  
   133  123  132 1   
   134  124  133 1   
   135  134  135 1   
   136  134  140 1   
   137  135  136 1   
   138  135  138 1   
   139  135  141 1   
   140  136  137 2   
   141  136  148 1   
   142  138  139 1   
   143  138  142 1   
   144  138  143 1   
   145  139  140 1   
   146  139  144 1   
   147  139  145 1   
   148  140  146 1   
   149  140  147 1   
   150  148  149 1   
   151  148  157 1   
   152  149  150 1   
   153  149  152 1   
   154  149  158 1   
   155  150  151 2   
   156  150  163 1   
   157  152  153 1   
   158  152  159 1   
   159  152  160 1   
   160  153  154 1   
   161  153  161 1   
   162  153  162 1   
   163  154  155 1   
   164  154  156 1   
   165  163  164 1   
   166  163  168 1   
   167  164  165 1   
   168  164  166 1   
   169  164  167 1   
   170  170  171 1   
   171  170  172 1   
   172  173  174 1   
   173  173  175 1   
   174  176  177 1   
   175  176  178 1   
   176  179  180 1   
   177  179  181 1   
@<TRIPOS>SUBSTRUCTURE
     1 MOL         1 TEMP              0 ****  ****    0 ROOT
