@<TRIPOS>MOLECULE
MOL
  182   178     1     0     0
SMALL
resp


@<TRIPOS>ATOM
      1 C1         -5.2480    3.1670   -0.8450 c3        1 MOL     -0.329375
      2 C2         -6.5530    2.8140   -0.1490 c         1 MOL      0.767723
      3 O1         -6.5590    2.2030    0.9130 o         1 MOL     -0.530213
      4 H1         -4.6130    3.7310   -0.1620 hc        1 MOL      0.056687
      5 H2         -4.7360    2.2510   -1.1430 hc        1 MOL      0.056687
      6 H3         -5.4590    3.7700   -1.7280 hc        1 MOL      0.056687
      7 N1         -7.6860    3.2520   -0.6850 n         1 MOL     -0.496231
      8 C3         -9.0040    2.8840   -0.2590 c3        1 MOL      0.026634
      9 C4         -9.3150    1.3760   -0.2130 c         1 MOL      0.631418
     10 O2        -10.0690    0.8850    0.6570 o         1 MOL     -0.548137
     11 C5         -9.3730    3.5390    1.0280 c3        1 MOL     -0.288074
     12 C6         -9.0230    5.0590    1.1450 c         1 MOL      0.735027
     13 O3         -8.4680    5.4860    2.1670 o         1 MOL     -0.658419
     14 O4         -9.3810    5.7640    0.1750 o         1 MOL     -0.658419
     15 H4         -7.6240    3.6450   -1.6110 hn        1 MOL      0.279286
     16 H5         -9.7470    3.2110   -0.9830 h1        1 MOL      0.068641
     17 H6         -8.9460    2.9320    1.8270 hc        1 MOL      0.089219
     18 H7        -10.4590    3.5310    1.0660 hc        1 MOL      0.089219
     19 N2         -8.6580    0.4960   -0.9770 n         1 MOL     -0.673374
     20 C7         -8.9770   -0.9750   -0.8920 c3        1 MOL      0.185600
     21 C8         -7.8910   -1.8530   -0.3940 c         1 MOL      0.864496
     22 O5         -8.1850   -2.7520    0.3890 o         1 MOL     -0.618213
     23 C9         -9.4080   -1.4830   -2.3020 c3        1 MOL     -0.176800
     24 C10        -9.7870   -2.9480   -2.4910 c3        1 MOL      0.039241
     25 C11       -11.0930   -3.3410   -1.7620 c3        1 MOL      0.018261
     26 C12       -11.3170   -4.8420   -1.5910 c3        1 MOL      0.064485
     27 N3        -11.9180   -5.5320   -2.7800 n4        1 MOL     -0.359166
     28 H8         -7.9530    0.8080   -1.6360 hn        1 MOL      0.275135
     29 H9         -9.7970   -1.2330   -0.2220 h1        1 MOL      0.073121
     30 H10        -8.6530   -1.2200   -3.0410 hc        1 MOL      0.049888
     31 H11       -10.2490   -0.8720   -2.6480 hc        1 MOL      0.049888
     32 H12        -9.0530   -3.6520   -2.0970 hc        1 MOL     -0.019238
     33 H13        -9.9610   -3.1820   -3.5470 hc        1 MOL     -0.019238
     34 H14       -11.9570   -3.0010   -2.3310 hc        1 MOL      0.020202
     35 H15       -11.0290   -2.8720   -0.7830 hc        1 MOL      0.020202
     36 H16       -11.9520   -4.9980   -0.7230 hx        1 MOL      0.080715
     37 H17       -10.4310   -5.3830   -1.2680 hx        1 MOL      0.080715
     38 H18       -11.3130   -5.4980   -3.5890 hn        1 MOL      0.270297
     39 H19       -12.2040   -6.4610   -2.5200 hn        1 MOL      0.270297
     40 H20       -12.7450   -5.0860   -3.1570 hn        1 MOL      0.270297
     41 N4         -6.6860   -1.5680   -0.8140 n         1 MOL     -0.650646
     42 C13        -5.4410   -2.2390   -0.4780 c3        1 MOL     -0.098389
     43 C14        -5.3080   -2.1050    1.0560 c         1 MOL      0.417562
     44 O6         -5.5910   -1.0400    1.7010 o         1 MOL     -0.445523
     45 C15        -4.2880   -1.5680   -1.2030 c3        1 MOL     -0.026506
     46 C16        -2.8760   -2.0980   -0.9550 c         1 MOL      0.666922
     47 O7         -2.1300   -2.4700   -1.9310 o         1 MOL     -0.745758
     48 O8         -2.4570   -2.1350    0.1930 o         1 MOL     -0.745758
     49 H21        -6.5810   -0.7480   -1.4040 hn        1 MOL      0.342943
     50 H22        -5.4560   -3.2950   -0.7550 h1        1 MOL      0.090526
     51 H23        -4.3470   -0.5320   -0.8520 hc        1 MOL      0.030510
     52 H24        -4.4880   -1.3680   -2.2500 hc        1 MOL      0.030510
     53 N5         -4.8560   -3.1180    1.7410 n         1 MOL     -0.202242
     54 C17        -4.6070   -3.1160    3.1960 c3        1 MOL     -0.152497
     55 C18        -3.7460   -1.9880    3.8260 c         1 MOL      0.555342
     56 O9         -3.8580   -1.6960    5.0150 o         1 MOL     -0.538872
     57 H25        -4.6770   -3.9680    1.2170 hn        1 MOL      0.208805
     58 H26        -4.0800   -4.0340    3.4420 h1        1 MOL      0.082163
     59 H27        -5.5720   -3.1270    3.7080 h1        1 MOL      0.082163
     60 N6         -2.8450   -1.5440    2.9940 n         1 MOL     -0.274148
     61 C19        -1.6820   -0.8210    3.3430 c3        1 MOL     -0.121810
     62 C20        -1.0430   -0.1600    2.0980 c         1 MOL      0.724973
     63 O10        -0.3510   -0.7420    1.3110 o         1 MOL     -0.566241
     64 C21        -0.7180   -1.8150    3.9690 c3        1 MOL     -0.511472
     65 C22        -0.5750   -3.2480    3.4050 c         1 MOL      0.661761
     66 N7         -0.5530   -4.2520    4.2400 n         1 MOL     -0.713878
     67 O11        -0.4220   -3.5200    2.2150 o         1 MOL     -0.523431
     68 H28        -2.8980   -1.8520    2.0430 hn        1 MOL      0.245334
     69 H29        -1.9260   -0.1660    4.1770 h1        1 MOL      0.148633
     70 H30        -1.0050   -1.9340    5.0160 hc        1 MOL      0.169323
     71 H31         0.2490   -1.3170    3.9160 hc        1 MOL      0.169323
     72 H32        -0.8810   -4.1190    5.1850 hn        1 MOL      0.356702
     73 H33        -0.4570   -5.1720    3.8320 hn        1 MOL      0.356702
     74 N8         -1.5860    1.0240    1.8790 n         1 MOL     -0.612852
     75 C23        -1.4120    1.8580    0.6660 c3        1 MOL      0.178711
     76 C24        -0.0680    2.6950    0.6130 c         1 MOL      0.594613
     77 O12         0.6160    2.9250    1.6110 o         1 MOL     -0.528199
     78 H34        -2.2330    1.3550    2.5720 hn        1 MOL      0.329932
     79 H35        -2.2290    2.5730    0.6020 h1        1 MOL      0.064161
     80 H36        -1.5700    1.3130   -0.2620 h1        1 MOL      0.064161
     81 N9          0.2290    3.0840   -0.6670 n         1 MOL     -0.765609
     82 C25         1.5590    3.7790   -0.8640 c3        1 MOL      0.593140
     83 C26         2.6400    2.7250   -1.1860 c         1 MOL      0.586794
     84 O13         2.2670    1.6180   -1.5920 o         1 MOL     -0.576172
     85 C27         1.4820    4.8520   -2.0040 c3        1 MOL     -0.285245
     86 C28         0.5120    5.9470   -1.5630 ca        1 MOL      0.124486
     87 C29         0.8850    6.9780   -0.6180 ca        1 MOL     -0.234054
     88 C30        -0.7670    6.0000   -2.1320 ca        1 MOL     -0.234054
     89 C31        -0.0130    7.9480   -0.2580 ca        1 MOL     -0.129143
     90 C32        -1.7650    6.9170   -1.6920 ca        1 MOL     -0.129143
     91 C33        -1.3080    7.9040   -0.8490 ca        1 MOL      0.210576
     92 O14        -2.1450    8.8600   -0.3390 oh        1 MOL     -0.465627
     93 H37        -0.3750    2.9040   -1.4520 hn        1 MOL      0.319272
     94 H38         1.8430    4.3130    0.0440 h1        1 MOL     -0.021144
     95 H39         0.9370    4.3360   -2.7930 hc        1 MOL      0.048731
     96 H40         2.4540    5.1700   -2.3700 hc        1 MOL      0.048731
     97 H41         1.9160    6.9250   -0.2960 ha        1 MOL      0.135322
     98 H42        -1.0040    5.2490   -2.8670 ha        1 MOL      0.135322
     99 H43         0.2530    8.7040    0.4730 ha        1 MOL      0.137942
    100 H44        -2.7790    7.0040   -2.0730 ha        1 MOL      0.137942
    101 H45        -2.9270    9.0730   -0.8510 ho        1 MOL      0.370939
    102 N10         3.9160    3.0040   -0.9590 n         1 MOL     -0.744872
    103 C34         5.1230    2.1880   -1.2370 c3        1 MOL      0.629593
    104 C35         5.9490    1.9500    0.0200 c         1 MOL      0.158951
    105 O15         5.9220    0.8250    0.4760 o         1 MOL     -0.331366
    106 C36         5.9860    2.5730   -2.4160 c3        1 MOL      0.027907
    107 C37         5.3250    2.4730   -3.8370 c3        1 MOL     -0.029531
    108 C38         7.2150    1.5890   -2.4870 c3        1 MOL     -0.136046
    109 C39         4.5570    3.7670   -4.3320 c3        1 MOL     -0.415972
    110 H46         4.0960    3.9940   -0.8550 hn        1 MOL      0.238949
    111 H47         4.7340    1.2010   -1.4540 h1        1 MOL     -0.001390
    112 H48         6.4150    3.5730   -2.3130 hc        1 MOL     -0.054697
    113 H49         4.7410    1.5560   -3.8480 hc        1 MOL      0.043429
    114 H50         6.0980    2.3940   -4.5890 hc        1 MOL      0.043429
    115 H51         8.0450    1.9020   -1.8460 hc        1 MOL      0.025821
    116 H52         6.8600    0.5940   -2.2010 hc        1 MOL      0.025821
    117 H53         7.6580    1.4920   -3.4760 hc        1 MOL      0.025821
    118 H54         3.8300    4.0960   -3.5860 hc        1 MOL      0.120969
    119 H55         5.2840    4.5700   -4.4050 hc        1 MOL      0.120969
    120 H56         4.2030    3.6290   -5.3540 hc        1 MOL      0.120969
    121 N11         6.4140    2.9500    0.7310 n         1 MOL     -0.136978
    122 C40         7.0000    2.7370    2.0510 c3        1 MOL     -0.270694
    123 C41         8.3330    1.9950    1.9250 c         1 MOL      0.486133
    124 O16         8.8410    1.3520    2.8380 o         1 MOL     -0.492409
    125 C42         7.3050    4.0110    2.9180 c3        1 MOL      0.030786
    126 O17         8.1290    5.0010    2.3470 oh        1 MOL     -0.586784
    127 H57         6.3530    3.9440    0.5160 hn        1 MOL      0.230835
    128 H58         6.2650    2.1000    2.5490 h1        1 MOL      0.165630
    129 H59         7.8270    3.7280    3.8220 h1        1 MOL      0.094083
    130 H60         6.3810    4.5370    3.1530 h1        1 MOL      0.094083
    131 H61         7.8300    5.8160    2.7500 ho        1 MOL      0.413731
    132 N12         8.9710    2.1390    0.7810 n         1 MOL     -0.053884
    133 C43         9.8820    1.1410    0.2080 c3        1 MOL      0.213306
    134 C44         9.6080   -0.3570    0.5210 c         1 MOL      0.533706
    135 O18        10.5320   -1.1080    0.7480 o         1 MOL     -0.568383
    136 C45        11.3100    1.5900    0.6630 c3        1 MOL     -0.391379
    137 H62         8.8320    2.9660    0.2220 hn        1 MOL      0.133422
    138 H63         9.8850    1.2050   -0.8770 h1        1 MOL      0.023111
    139 H64        12.1060    1.1810    0.0520 hc        1 MOL      0.098499
    140 H65        11.2770    2.6770    0.6890 hc        1 MOL      0.098499
    141 H66        11.3560    1.1830    1.6690 hc        1 MOL      0.098499
    142 N13         8.4130   -0.7640    0.5360 n         1 MOL     -0.489637
    143 C46         7.9540   -2.0520    0.9710 c3        1 MOL      0.675344
    144 C47         7.1510   -2.8370   -0.1100 c         1 MOL      0.224906
    145 O19         6.8300   -2.3320   -1.1470 o         1 MOL     -0.397229
    146 C48         7.2350   -1.8800    2.2810 c3        1 MOL     -0.181657
    147 H67         7.7780    0.0170    0.4940 hn        1 MOL     -0.051176
    148 H68         8.7460   -2.7370    1.2960 h1        1 MOL     -0.091692
    149 H69         6.9070   -2.8260    2.6950 hc        1 MOL      0.042640
    150 H70         7.9690   -1.4710    2.9760 hc        1 MOL      0.042640
    151 H71         6.3560   -1.2550    2.1110 hc        1 MOL      0.042640
    152 N14         6.9280   -4.0720    0.2580 n         1 MOL     -0.358207
    153 C49         6.4050   -5.1200   -0.6920 c3        1 MOL     -0.170453
    154 C50         7.1570   -5.3830   -2.0420 c         1 MOL      0.436305
    155 O20         7.1950   -6.5230   -2.5080 o         1 MOL     -0.526238
    156 C51         4.8850   -4.8680   -0.8750 c3        1 MOL      0.178339
    157 C52         4.0510   -4.8050    0.4710 c3        1 MOL      0.083171
    158 C53         2.6450   -4.2850    0.2660 c         1 MOL      0.526449
    159 O21         2.5100   -3.0130    0.1880 o         1 MOL     -0.703352
    160 O22         1.5960   -4.9870    0.2550 o         1 MOL     -0.703352
    161 H72         7.1850   -4.3350    1.2080 hn        1 MOL      0.288766
    162 H73         6.6080   -6.0970   -0.2570 h1        1 MOL      0.112355
    163 H74         4.4310   -5.6570   -1.4770 hc        1 MOL     -0.025756
    164 H75         4.7150   -3.9360   -1.4140 hc        1 MOL     -0.025756
    165 H76         4.5430   -4.1310    1.1800 hc        1 MOL     -0.035326
    166 H77         4.0930   -5.8320    0.8470 hc        1 MOL     -0.035326
    167 N15         7.6240   -4.3490   -2.7240 n         1 MOL     -0.203273
    168 C54         8.2250   -4.2700   -4.0930 c3        1 MOL     -0.112183
    169 H78         9.2250   -3.8420   -4.0260 h1        1 MOL      0.076442
    170 H79         8.2870   -5.2700   -4.5210 h1        1 MOL      0.076442
    171 H80         7.6030   -3.6390   -4.7290 h1        1 MOL      0.076442
    172 H81         7.7710   -3.5240   -2.1590 hn        1 MOL      0.193912
    173 Ca1         0.0050   -2.9820   -0.2440 Ca        1 MOL      1.658661
    174 O23         0.3430   -0.7830   -1.6800 oh        1 MOL     -0.766744
    175 H82         0.9640   -0.0630   -1.5910 ho        1 MOL      0.392516
    176 H83        -0.0940   -0.6180   -2.5170 ho        1 MOL      0.392516
    177 O24        -1.4240   -5.2000   -0.2570 oh        1 MOL     -0.766744
    178 H84        -2.1820   -5.0810   -0.8320 ho        1 MOL      0.392516
    179 H85        -1.7160   -5.8360    0.3940 ho        1 MOL      0.392516
    180 O25         0.6440   -4.0100   -2.5860 oh        1 MOL     -0.766744
    181 H86         0.7550   -4.9050   -2.8880 ho        1 MOL      0.392516
    182 H87         0.9550   -3.4630   -3.3110 ho        1 MOL      0.392516
@<TRIPOS>BOND
     1    1    2 1   
     2    1    4 1   
     3    1    5 1   
     4    1    6 1   
     5    2    3 2   
     6    2    7 1   
     7    7    8 1   
     8    7   15 1   
     9    8    9 1   
    10    8   11 1   
    11    8   16 1   
    12    9   10 2   
    13    9   19 1   
    14   11   12 1   
    15   11   17 1   
    16   11   18 1   
    17   12   13 1   
    18   12   14 1   
    19   19   20 1   
    20   19   28 1   
    21   20   21 1   
    22   20   23 1   
    23   20   29 1   
    24   21   22 2   
    25   21   41 1   
    26   23   24 1   
    27   23   30 1   
    28   23   31 1   
    29   24   25 1   
    30   24   32 1   
    31   24   33 1   
    32   25   26 1   
    33   25   34 1   
    34   25   35 1   
    35   26   27 1   
    36   26   36 1   
    37   26   37 1   
    38   27   38 1   
    39   27   39 1   
    40   27   40 1   
    41   41   42 1   
    42   41   49 1   
    43   42   43 1   
    44   42   45 1   
    45   42   50 1   
    46   43   44 2   
    47   43   53 1   
    48   45   46 1   
    49   45   51 1   
    50   45   52 1   
    51   46   47 1   
    52   46   48 1   
    53   53   54 1   
    54   53   57 1   
    55   54   55 1   
    56   54   58 1   
    57   54   59 1   
    58   55   56 2   
    59   55   60 1   
    60   60   61 1   
    61   60   68 1   
    62   61   62 1   
    63   61   64 1   
    64   61   69 1   
    65   62   63 2   
    66   62   74 1   
    67   64   65 1   
    68   64   70 1   
    69   64   71 1   
    70   65   66 1   
    71   65   67 2   
    72   66   72 1   
    73   66   73 1   
    74   74   75 1   
    75   74   78 1   
    76   75   76 1   
    77   75   79 1   
    78   75   80 1   
    79   76   77 2   
    80   76   81 1   
    81   81   82 1   
    82   81   93 1   
    83   82   83 1   
    84   82   85 1   
    85   82   94 1   
    86   83   84 2   
    87   83  102 1   
    88   85   86 1   
    89   85   95 1   
    90   85   96 1   
    91   86   87 ar  
    92   86   88 ar  
    93   87   89 ar  
    94   87   97 1   
    95   88   90 ar  
    96   88   98 1   
    97   89   91 ar  
    98   89   99 1   
    99   90   91 ar  
   100   90  100 1   
   101   91   92 1   
   102   92  101 1   
   103  102  103 1   
   104  102  110 1   
   105  103  104 1   
   106  103  106 1   
   107  103  111 1   
   108  104  105 2   
   109  104  121 1   
   110  106  107 1   
   111  106  108 1   
   112  106  112 1   
   113  107  109 1   
   114  107  113 1   
   115  107  114 1   
   116  108  115 1   
   117  108  116 1   
   118  108  117 1   
   119  109  118 1   
   120  109  119 1   
   121  109  120 1   
   122  121  122 1   
   123  121  127 1   
   124  122  123 1   
   125  122  125 1   
   126  122  128 1   
   127  123  124 2   
   128  123  132 1   
   129  125  126 1   
   130  125  129 1   
   131  125  130 1   
   132  126  131 1   
   133  132  133 1   
   134  132  137 1   
   135  133  134 1   
   136  133  136 1   
   137  133  138 1   
   138  134  135 2   
   139  134  142 1   
   140  136  139 1   
   141  136  140 1   
   142  136  141 1   
   143  142  143 1   
   144  142  147 1   
   145  143  144 1   
   146  143  146 1   
   147  143  148 1   
   148  144  145 2   
   149  144  152 1   
   150  146  149 1   
   151  146  150 1   
   152  146  151 1   
   153  152  153 1   
   154  152  161 1   
   155  153  154 1   
   156  153  156 1   
   157  153  162 1   
   158  154  155 2   
   159  154  167 1   
   160  156  157 1   
   161  156  163 1   
   162  156  164 1   
   163  157  158 1   
   164  157  165 1   
   165  157  166 1   
   166  158  159 1   
   167  158  160 1   
   168  167  168 1   
   169  167  172 1   
   170  168  169 1   
   171  168  170 1   
   172  168  171 1   
   173  174  175 1   
   174  174  176 1   
   175  177  178 1   
   176  177  179 1   
   177  180  181 1   
   178  180  182 1   
@<TRIPOS>SUBSTRUCTURE
     1 MOL         1 TEMP              0 ****  ****    0 ROOT
