@<TRIPOS>MOLECULE
MOL
  204   195     1     0     0
SMALL
resp


@<TRIPOS>ATOM
      1 C1          3.1800   -3.6630    1.6110 c3        1 MOL     -0.471224
      2 C2          2.0250   -2.7230    1.2370 c         1 MOL      0.598460
      3 O1          2.2580   -1.6140    0.7600 o         1 MOL     -0.613224
      4 H1          3.9070   -3.6850    0.7990 hc        1 MOL      0.132728
      5 H2          3.6620   -3.3020    2.5200 hc        1 MOL      0.132728
      6 H3          2.7910   -4.6670    1.7780 hc        1 MOL      0.132728
      7 N1          0.7410   -3.0840    1.3160 n         1 MOL     -0.276655
      8 C3          0.0860   -4.3000    1.8080 c3        1 MOL     -0.088616
      9 C4         -0.1990   -5.3280    0.7040 c         1 MOL      0.514896
     10 O2         -0.3160   -6.5120    1.1350 o         1 MOL     -0.551758
     11 C5         -1.1390   -4.0040    2.6680 c3        1 MOL     -0.157720
     12 C6         -0.9390   -3.0760    3.8750 c         1 MOL      0.701415
     13 O3         -1.5050   -1.9320    3.8860 o         1 MOL     -0.657061
     14 O4         -0.2890   -3.5040    4.8200 o         1 MOL     -0.657061
     15 H4          0.0320   -2.4900    0.9090 hn        1 MOL      0.211325
     16 H5          0.8220   -4.7940    2.4440 h1        1 MOL      0.087380
     17 H6         -1.5490   -4.9740    2.9290 hc        1 MOL      0.060131
     18 H7         -1.8610   -3.5250    2.0070 hc        1 MOL      0.060131
     19 N2         -0.3840   -4.9310   -0.5680 n         1 MOL     -0.357050
     20 C7         -0.7210   -5.8820   -1.6240 c3        1 MOL     -0.190282
     21 C8         -2.2140   -6.2120   -1.6240 c         1 MOL      0.403497
     22 O5         -2.5870   -7.2730   -2.1270 o         1 MOL     -0.535819
     23 C9         -0.2650   -5.3610   -3.0470 c3        1 MOL      0.149586
     24 C10        -0.9590   -4.1350   -3.5960 c3        1 MOL      0.231657
     25 C11         1.2770   -5.2980   -3.1020 c3        1 MOL     -0.166025
     26 C12        -0.6200   -3.8110   -5.0660 c3        1 MOL     -0.327015
     27 H8         -0.2910   -3.9470   -0.7660 hn        1 MOL      0.169886
     28 H9         -0.1970   -6.8180   -1.4430 h1        1 MOL      0.135118
     29 H10        -0.4840   -6.1990   -3.7040 hc        1 MOL     -0.018235
     30 H11        -0.5770   -3.3340   -2.9650 hc        1 MOL     -0.016040
     31 H12        -2.0360   -4.1840   -3.4730 hc        1 MOL     -0.016040
     32 H13         1.7130   -6.1410   -2.5680 hc        1 MOL      0.031837
     33 H14         1.7220   -5.4290   -4.0870 hc        1 MOL      0.031837
     34 H15         1.5960   -4.3400   -2.6950 hc        1 MOL      0.031837
     35 H16        -1.0870   -4.5480   -5.7140 hc        1 MOL      0.061878
     36 H17        -1.0170   -2.8300   -5.3000 hc        1 MOL      0.061878
     37 H18         0.4780   -3.8260   -5.0860 hc        1 MOL      0.061878
     38 N3         -2.9360   -5.3150   -0.9470 n         1 MOL     -0.016085
     39 C13        -4.3720   -5.5950   -0.6330 c3        1 MOL     -0.141359
     40 C14        -4.8100   -4.5600    0.4360 c         1 MOL      0.338905
     41 O6         -4.4810   -3.3540    0.3120 o         1 MOL     -0.459103
     42 C15        -5.1460   -5.4010   -1.9630 c3        1 MOL     -0.148529
     43 C16        -6.6340   -5.8020   -1.8360 c         1 MOL      0.711025
     44 O7         -7.0710   -6.1330   -0.7320 o         1 MOL     -0.651026
     45 O8         -7.3830   -5.8300   -2.8340 o         1 MOL     -0.651026
     46 H19        -2.5810   -4.4080   -0.6850 hn        1 MOL      0.101564
     47 H20        -4.3450   -6.6370   -0.2920 h1        1 MOL      0.107950
     48 H21        -4.7120   -6.1140   -2.6670 hc        1 MOL      0.046595
     49 H22        -4.9800   -4.3950   -2.3510 hc        1 MOL      0.046595
     50 N4         -5.5870   -5.0420    1.4010 n         1 MOL     -0.236264
     51 C17        -6.1310   -4.2120    2.5010 c3        1 MOL     -0.120200
     52 C18        -7.0630   -3.0310    2.2390 c         1 MOL      0.423104
     53 O9         -7.1170   -2.0820    3.0480 o         1 MOL     -0.567487
     54 H23        -5.6190   -6.0450    1.4890 hn        1 MOL      0.257537
     55 H24        -5.2970   -3.8420    3.0970 h1        1 MOL      0.094654
     56 H25        -6.5870   -4.9420    3.1740 h1        1 MOL      0.094654
     57 N5         -7.5430   -2.8620    1.0490 n         1 MOL     -0.241451
     58 C19        -8.2850   -1.7480    0.5120 c3        1 MOL      0.234159
     59 C20        -7.6200   -1.4200   -0.8250 c         1 MOL      0.512316
     60 O10        -7.7000   -2.2100   -1.7810 o         1 MOL     -0.508653
     61 C21        -9.7960   -2.1490    0.3930 c3        1 MOL     -0.298608
     62 C22       -10.7030   -0.9880   -0.1300 c         1 MOL      0.735381
     63 O11       -10.4700    0.2440    0.1340 o         1 MOL     -0.661680
     64 O12       -11.7750   -1.2390   -0.7220 o         1 MOL     -0.661680
     65 H26        -7.4870   -3.7410    0.5590 hn        1 MOL      0.209733
     66 H27        -8.3610   -0.8460    1.1200 h1        1 MOL     -0.001424
     67 H28       -10.1830   -2.5860    1.3100 hc        1 MOL      0.066822
     68 H29        -9.8620   -2.9960   -0.2910 hc        1 MOL      0.066822
     69 N6         -7.1500   -0.1780   -1.0890 n         1 MOL     -0.585035
     70 C23        -7.2520    1.0310   -0.1640 c3        1 MOL      0.126373
     71 C24        -7.2050    2.4200   -0.9090 c         1 MOL      0.518875
     72 O13        -7.3280    2.4600   -2.1160 o         1 MOL     -0.521207
     73 H30        -6.7220    0.0100   -1.9760 hn        1 MOL      0.314354
     74 H31        -6.4840    0.9220    0.6040 h1        1 MOL      0.090746
     75 H32        -8.2460    1.0910    0.2850 h1        1 MOL      0.090746
     76 N7         -7.0610    3.5340   -0.1290 n         1 MOL     -0.530732
     77 C25        -6.8510    3.7400    1.3160 c3        1 MOL      0.024097
     78 C26        -5.5020    3.0770    1.7520 c         1 MOL      0.351521
     79 O14        -5.4250    2.3300    2.7510 o         1 MOL     -0.428924
     80 C27        -8.1540    3.3130    2.0540 c3        1 MOL     -0.005241
     81 C28        -8.2550    3.7340    3.5790 c3        1 MOL     -0.191935
     82 C29        -8.0110    5.2160    3.6750 c         1 MOL      0.624473
     83 N8         -9.0300    5.9800    3.3930 n         1 MOL     -0.776380
     84 O15        -6.9890    5.6550    4.1760 o         1 MOL     -0.564156
     85 H33        -7.0250    4.3890   -0.6740 hn        1 MOL      0.287462
     86 H34        -6.7910    4.8310    1.3420 h1        1 MOL      0.090438
     87 H35        -8.2730    2.2190    2.0330 hc        1 MOL      0.031804
     88 H36        -9.0100    3.6670    1.4790 hc        1 MOL      0.031804
     89 H37        -7.4740    3.2490    4.1700 hc        1 MOL      0.079141
     90 H38        -9.2710    3.5820    3.9460 hc        1 MOL      0.079141
     91 H39        -9.8180    5.5710    2.9080 hn        1 MOL      0.347984
     92 H40        -8.9310    6.9650    3.5660 hn        1 MOL      0.347984
     93 N9         -4.4890    3.2880    0.9430 n         1 MOL     -0.268135
     94 C30        -3.1860    2.6180    0.9110 c3        1 MOL     -0.083769
     95 C31        -2.6960    2.2880   -0.5070 c         1 MOL      0.509439
     96 O16        -3.2570    2.7460   -1.5030 o         1 MOL     -0.551007
     97 C32        -2.0320    3.3180    1.7430 c3        1 MOL      0.145426
     98 C33        -2.4200    3.5090    3.1940 c3        1 MOL     -0.317250
     99 C34        -1.6970    4.7760    1.4040 c3        1 MOL     -0.317250
    100 H41        -4.5960    3.9610    0.1960 hn        1 MOL      0.231598
    101 H42        -3.3200    1.6340    1.3520 h1        1 MOL      0.125952
    102 H43        -1.0800    2.7810    1.7120 hc        1 MOL      0.042061
    103 H44        -2.6120    2.5620    3.6960 hc        1 MOL      0.089492
    104 H45        -1.5880    3.9290    3.7590 hc        1 MOL      0.089492
    105 H46        -3.2340    4.2260    3.3300 hc        1 MOL      0.089492
    106 H47        -2.3950    5.4950    1.8420 hc        1 MOL      0.089492
    107 H48        -0.6810    5.0530    1.7040 hc        1 MOL      0.089492
    108 H49        -1.7340    4.9520    0.3360 hc        1 MOL      0.089492
    109 N10        -1.6870    1.4260   -0.6170 n         1 MOL     -0.366066
    110 C35        -1.1770    0.9600   -1.9390 c3        1 MOL      0.023936
    111 C36        -0.0400    1.7740   -2.5480 c         1 MOL      0.499906
    112 O17         0.4420    1.3830   -3.6270 o         1 MOL     -0.544144
    113 C37        -0.8600   -0.5290   -1.9410 c3        1 MOL      0.004109
    114 C38        -1.9430   -1.4410   -1.4460 c         1 MOL      0.372350
    115 N11        -3.1230   -1.3490   -1.8710 n         1 MOL     -0.655719
    116 O18        -1.6400   -2.3770   -0.6740 o         1 MOL     -0.399797
    117 H50        -1.2490    1.0580    0.2180 hn        1 MOL      0.272363
    118 H51        -2.0100    0.9900   -2.6550 h1        1 MOL      0.081463
    119 H52         0.0420   -0.7570   -1.3740 hc        1 MOL      0.053452
    120 H53        -0.7190   -0.7850   -2.9890 hc        1 MOL      0.053452
    121 H54        -3.4290   -0.6310   -2.5140 hn        1 MOL      0.367770
    122 H55        -3.7770   -1.9120   -1.3570 hn        1 MOL      0.367770
    123 N12         0.4750    2.7870   -1.8300 n         1 MOL     -0.400104
    124 C39         1.6970    3.5000   -2.2250 c3        1 MOL      0.308010
    125 C40         2.4910    3.9500   -0.9880 c         1 MOL      0.442671
    126 O19         1.9730    4.4730   -0.0040 o         1 MOL     -0.484532
    127 C41         1.5380    4.6130   -3.2480 c3        1 MOL      0.054628
    128 C42         0.6360    5.8270   -2.9030 ca        1 MOL     -0.074822
    129 C43         1.1480    7.1060   -2.6040 ca        1 MOL     -0.174100
    130 C44        -0.8080    5.5690   -2.7680 ca        1 MOL     -0.174100
    131 C45         0.2300    8.1040   -2.1840 ca        1 MOL     -0.132218
    132 C46        -1.6650    6.5870   -2.3280 ca        1 MOL     -0.132218
    133 C47        -1.1780    7.8340   -2.1020 ca        1 MOL      0.216112
    134 O20        -1.9470    8.9790   -1.9890 oh        1 MOL     -0.490862
    135 H56         0.1080    3.0320   -0.9150 hn        1 MOL      0.181391
    136 H57         2.3610    2.7670   -2.6890 h1        1 MOL     -0.069926
    137 H58         1.1670    4.1040   -4.1430 hc        1 MOL      0.007677
    138 H59         2.5270    4.9200   -3.5760 hc        1 MOL      0.007677
    139 H60         2.1900    7.3670   -2.7520 ha        1 MOL      0.133512
    140 H61        -1.2660    4.6500   -3.1040 ha        1 MOL      0.133512
    141 H62         0.5650    9.1080   -1.9470 ha        1 MOL      0.122913
    142 H63        -2.7280    6.4790   -2.4980 ha        1 MOL      0.122913
    143 H64        -2.8370    8.8360   -2.3180 ho        1 MOL      0.349991
    144 N13         3.7910    3.8270   -1.0830 n         1 MOL     -0.452094
    145 C48         4.8390    4.1710   -0.0610 c3        1 MOL      0.015914
    146 C49         5.7210    2.9300   -0.0930 c         1 MOL      0.553443
    147 O21         6.8090    2.8290   -0.6660 o         1 MOL     -0.483489
    148 C50         5.4750    5.4330   -0.3080 c3        1 MOL      0.084796
    149 C51         4.5030    6.6100   -0.1400 c3        1 MOL     -0.336918
    150 C52         5.2150    7.9530    0.2290 c         1 MOL      0.724106
    151 O22         4.8540    9.0140   -0.3480 o         1 MOL     -0.689324
    152 O23         6.0390    8.0650    1.1300 o         1 MOL     -0.689324
    153 H65         4.1220    3.4690   -1.9720 hn        1 MOL      0.266583
    154 H66         4.3350    4.1880    0.9060 h1        1 MOL      0.111246
    155 H67         6.0620    5.4090   -1.2250 hc        1 MOL     -0.005647
    156 H68         6.3150    5.3540    0.3720 hc        1 MOL     -0.005647
    157 H69         3.7760    6.3470    0.6240 hc        1 MOL      0.098755
    158 H70         3.9230    6.6630   -1.0670 hc        1 MOL      0.098755
    159 N14         5.2580    1.8410    0.5450 n         1 MOL     -0.615882
    160 C53         5.8870    0.5840    0.5880 c3        1 MOL     -0.048238
    161 C54         5.7070   -0.2460   -0.6860 c         1 MOL      0.588813
    162 O24         6.3740   -1.2030   -0.9530 o         1 MOL     -0.340950
    163 C55         5.3960   -0.1460    1.8750 c3        1 MOL      0.586451
    164 C56         6.3710   -1.2170    2.2310 c3        1 MOL     -1.088819
    165 C57         7.8860   -1.0050    2.3510 c         1 MOL      0.939672
    166 O25         8.3860    0.1150    2.5660 o         1 MOL     -0.583001
    167 O26         8.5970   -2.0230    2.1210 o         1 MOL     -0.583001
    168 H71         4.4300    1.9290    1.1110 hn        1 MOL      0.269082
    169 H72         6.9580    0.7190    0.7050 h1        1 MOL      0.088604
    170 H73         4.4170   -0.5590    1.6210 hc        1 MOL     -0.039962
    171 H74         5.3750    0.5740    2.6850 hc        1 MOL     -0.039962
    172 H75         6.2390   -2.0090    1.4900 hc        1 MOL      0.189905
    173 H76         6.0810   -1.7550    3.1400 hc        1 MOL      0.189905
    174 N15         4.6990    0.1540   -1.5060 n         1 MOL     -0.498056
    175 C58         4.6730   -0.1490   -2.9480 c3        1 MOL     -0.082794
    176 H77         5.0800   -1.1460   -3.1160 h1        1 MOL      0.064689
    177 H78         3.6440   -0.1120   -3.3080 h1        1 MOL      0.064689
    178 H79         5.2740    0.5840   -3.4850 h1        1 MOL      0.064689
    179 H80         4.0990    0.9290   -1.2970 hn        1 MOL      0.319591
    180 Ca1        10.6970   -2.0270    0.6270 Ca        1 MOL      1.631742
    181 O27        12.4060   -0.6000   -0.9170 oh        1 MOL     -0.720980
    182 H81        13.0680   -0.7820   -1.5940 ho        1 MOL      0.302936
    183 H82        12.5940    0.2900   -0.6200 ho        1 MOL      0.302936
    184 O28        12.2270   -3.5170   -1.2950 oh        1 MOL     -0.720980
    185 H83        12.7480   -4.0650   -0.7180 ho        1 MOL      0.302936
    186 H84        12.8340   -3.2370   -1.9810 ho        1 MOL      0.302936
    187 O29        10.9130    0.5060    1.6870 oh        1 MOL     -0.720980
    188 H85        11.2420    1.0640    2.3930 ho        1 MOL      0.302936
    189 H86        10.0240    0.2790    1.9490 ho        1 MOL      0.302936
    190 O30        10.9500   -1.6690    3.3470 oh        1 MOL     -0.720980
    191 H87        11.6710   -1.7380    3.9660 ho        1 MOL      0.302936
    192 H88        10.2770   -1.1660    3.8180 ho        1 MOL      0.302936
    193 O31        11.1020   -4.6230    1.5770 oh        1 MOL     -0.720980
    194 H89        11.4820   -5.3660    1.1110 ho        1 MOL      0.302936
    195 H90        11.6030   -4.5750    2.3870 ho        1 MOL      0.302936
    196 O32         9.0460   -3.7840   -0.6030 oh        1 MOL     -0.720980
    197 H91         9.3610   -4.3610   -1.3040 ho        1 MOL      0.302936
    198 H92         8.1530   -4.1040   -0.4230 ho        1 MOL      0.302936
    199 O33        13.3830   -2.4610    1.4300 oh        1 MOL     -0.720980
    200 H93        13.9460   -2.9720    0.8530 ho        1 MOL      0.302936
    201 H94        13.9620   -2.1400    2.1110 ho        1 MOL      0.302936
    202 O34         9.0210   -0.6210   -0.9220 oh        1 MOL     -0.720980
    203 H95         9.0790    0.0360   -1.6190 ho        1 MOL      0.302936
    204 H96         8.1790   -1.0570   -1.0810 ho        1 MOL      0.302936
@<TRIPOS>BOND
     1    1    2 1   
     2    1    4 1   
     3    1    5 1   
     4    1    6 1   
     5    2    3 2   
     6    2    7 1   
     7    7    8 1   
     8    7   15 1   
     9    8    9 1   
    10    8   11 1   
    11    8   16 1   
    12    9   10 2   
    13    9   19 1   
    14   11   12 1   
    15   11   17 1   
    16   11   18 1   
    17   12   13 1   
    18   12   14 1   
    19   19   20 1   
    20   19   27 1   
    21   20   21 1   
    22   20   23 1   
    23   20   28 1   
    24   21   22 2   
    25   21   38 1   
    26   23   24 1   
    27   23   25 1   
    28   23   29 1   
    29   24   26 1   
    30   24   30 1   
    31   24   31 1   
    32   25   32 1   
    33   25   33 1   
    34   25   34 1   
    35   26   35 1   
    36   26   36 1   
    37   26   37 1   
    38   38   39 1   
    39   38   46 1   
    40   39   40 1   
    41   39   42 1   
    42   39   47 1   
    43   40   41 2   
    44   40   50 1   
    45   42   43 1   
    46   42   48 1   
    47   42   49 1   
    48   43   44 1   
    49   43   45 1   
    50   50   51 1   
    51   50   54 1   
    52   51   52 1   
    53   51   55 1   
    54   51   56 1   
    55   52   53 2   
    56   52   57 1   
    57   57   58 1   
    58   57   65 1   
    59   58   59 1   
    60   58   61 1   
    61   58   66 1   
    62   59   60 2   
    63   59   69 1   
    64   61   62 1   
    65   61   67 1   
    66   61   68 1   
    67   62   63 1   
    68   62   64 1   
    69   69   70 1   
    70   69   73 1   
    71   70   71 1   
    72   70   74 1   
    73   70   75 1   
    74   71   72 2   
    75   71   76 1   
    76   76   77 1   
    77   76   85 1   
    78   77   78 1   
    79   77   80 1   
    80   77   86 1   
    81   78   79 2   
    82   78   93 1   
    83   80   81 1   
    84   80   87 1   
    85   80   88 1   
    86   81   82 1   
    87   81   89 1   
    88   81   90 1   
    89   82   83 1   
    90   82   84 2   
    91   83   91 1   
    92   83   92 1   
    93   93   94 1   
    94   93  100 1   
    95   94   95 1   
    96   94   97 1   
    97   94  101 1   
    98   95   96 2   
    99   95  109 1   
   100   97   98 1   
   101   97   99 1   
   102   97  102 1   
   103   98  103 1   
   104   98  104 1   
   105   98  105 1   
   106   99  106 1   
   107   99  107 1   
   108   99  108 1   
   109  109  110 1   
   110  109  117 1   
   111  110  111 1   
   112  110  113 1   
   113  110  118 1   
   114  111  112 2   
   115  111  123 1   
   116  113  114 1   
   117  113  119 1   
   118  113  120 1   
   119  114  115 1   
   120  114  116 2   
   121  115  121 1   
   122  115  122 1   
   123  123  124 1   
   124  123  135 1   
   125  124  125 1   
   126  124  127 1   
   127  124  136 1   
   128  125  126 2   
   129  125  144 1   
   130  127  128 1   
   131  127  137 1   
   132  127  138 1   
   133  128  129 ar  
   134  128  130 ar  
   135  129  131 ar  
   136  129  139 1   
   137  130  132 ar  
   138  130  140 1   
   139  131  133 ar  
   140  131  141 1   
   141  132  133 ar  
   142  132  142 1   
   143  133  134 1   
   144  134  143 1   
   145  144  145 1   
   146  144  153 1   
   147  145  146 1   
   148  145  148 1   
   149  145  154 1   
   150  146  147 2   
   151  146  159 1   
   152  148  149 1   
   153  148  155 1   
   154  148  156 1   
   155  149  150 1   
   156  149  157 1   
   157  149  158 1   
   158  150  151 1   
   159  150  152 1   
   160  159  160 1   
   161  159  168 1   
   162  160  161 1   
   163  160  163 1   
   164  160  169 1   
   165  161  162 2   
   166  161  174 1   
   167  163  164 1   
   168  163  170 1   
   169  163  171 1   
   170  164  165 1   
   171  164  172 1   
   172  164  173 1   
   173  165  166 1   
   174  165  167 1   
   175  174  175 1   
   176  174  179 1   
   177  175  176 1   
   178  175  177 1   
   179  175  178 1   
   180  181  182 1   
   181  181  183 1   
   182  184  185 1   
   183  184  186 1   
   184  187  188 1   
   185  187  189 1   
   186  190  191 1   
   187  190  192 1   
   188  193  194 1   
   189  193  195 1   
   190  196  197 1   
   191  196  198 1   
   192  199  200 1   
   193  199  201 1   
   194  202  203 1   
   195  202  204 1   
@<TRIPOS>SUBSTRUCTURE
     1 MOL         1 TEMP              0 ****  ****    0 ROOT
