@<TRIPOS>MOLECULE
MOL
  186   183     1     0     0
SMALL
resp


@<TRIPOS>ATOM
      1 C1         12.6260    5.5810   -2.4670 c3        1 MOL     -0.523397
      2 C2         12.5000    4.2210   -1.7350 c         1 MOL      0.708658
      3 O1         13.3650    3.3680   -1.7100 o         1 MOL     -0.549231
      4 H1         13.6780    5.7920   -2.6620 hc        1 MOL      0.140775
      5 H2         12.0840    5.5380   -3.4120 hc        1 MOL      0.140775
      6 H3         12.2080    6.3710   -1.8430 hc        1 MOL      0.140775
      7 N1         11.3050    3.9870   -1.1480 n         1 MOL     -0.382841
      8 C3         10.8200    2.6430   -0.6190 c3        1 MOL     -0.151417
      9 C4          9.3880    2.1880   -0.9280 c         1 MOL      0.711968
     10 O2          8.4830    3.1100   -1.0660 o         1 MOL     -0.711460
     11 C5         10.9330    2.5870    0.9170 c3        1 MOL      0.042605
     12 C6         10.5780    3.9320    1.5910 c         1 MOL      0.623046
     13 O3          9.6530    4.6480    1.1780 o         1 MOL     -0.655139
     14 O4         11.2830    4.3560    2.5770 o         1 MOL     -0.655139
     15 H4         10.6180    4.7390   -1.1660 hn        1 MOL      0.180124
     16 H5         11.4200    1.8250   -1.0290 h1        1 MOL      0.090438
     17 H6         11.9840    2.3770    1.1130 hc        1 MOL      0.013320
     18 H7         10.3360    1.7800    1.3230 hc        1 MOL      0.013320
     19 N2          9.0490    0.8610   -1.1310 n         1 MOL     -0.549390
     20 C7          7.6710    0.3830   -1.3410 c3        1 MOL      0.017335
     21 C8          6.8120    0.3200   -0.0460 c         1 MOL      0.826202
     22 O5          7.2760   -0.0350    1.0150 o         1 MOL     -0.553510
     23 C9          7.6770   -0.8790   -2.2120 c3        1 MOL     -0.351744
     24 C10         8.3060   -2.1160   -1.4930 c3        1 MOL      0.122671
     25 C11         8.3830   -3.3810   -2.3560 c3        1 MOL      0.158670
     26 C12         8.7100   -4.6030   -1.5000 c3        1 MOL     -0.251955
     27 N3          7.5030   -4.9370   -0.6490 n4        1 MOL     -0.256982
     28 H8          9.6710    0.0910   -0.9480 hn        1 MOL      0.300738
     29 H9          7.1870    1.1080   -1.9980 h1        1 MOL      0.132427
     30 H10         8.1670   -0.6450   -3.1660 hc        1 MOL      0.107475
     31 H11         6.6330   -1.0570   -2.4700 hc        1 MOL      0.107475
     32 H12         7.7120   -2.2390   -0.5950 hc        1 MOL     -0.003854
     33 H13         9.3020   -1.9120   -1.1120 hc        1 MOL     -0.003854
     34 H14         9.0310   -3.2990   -3.2270 hc        1 MOL      0.000231
     35 H15         7.3940   -3.4510   -2.8170 hc        1 MOL      0.000231
     36 H16         9.6060   -4.4210   -0.9010 hx        1 MOL      0.159784
     37 H17         8.8030   -5.4850   -2.1260 hx        1 MOL      0.159784
     38 H18         7.6920   -5.8300   -0.2340 hn        1 MOL      0.315123
     39 H19         7.4990   -4.3700    0.1860 hn        1 MOL      0.315123
     40 H20         6.6030   -4.9340   -1.1020 hn        1 MOL      0.315123
     41 N4          5.5050    0.5980   -0.2350 n         1 MOL     -0.751622
     42 C13         4.5700    0.6170    0.8940 c3        1 MOL      0.494483
     43 C14         3.1350    0.2410    0.3840 c         1 MOL      0.299339
     44 O6          2.7390    0.6410   -0.7060 o         1 MOL     -0.457906
     45 C15         4.4130    2.0260    1.5250 c3        1 MOL     -0.168536
     46 C16         5.4040    3.0820    0.9640 c         1 MOL      0.755967
     47 O7          6.4990    3.2740    1.5900 o         1 MOL     -0.836030
     48 O8          5.2370    3.8160   -0.0010 o         1 MOL     -0.836030
     49 H21         5.1800    0.9300   -1.1300 hn        1 MOL      0.303175
     50 H22         4.8950   -0.1230    1.6270 h1        1 MOL      0.001136
     51 H23         4.3860    1.9260    2.6120 hc        1 MOL      0.060613
     52 H24         3.4870    2.4570    1.1600 hc        1 MOL      0.060613
     53 N5          2.2810   -0.5590    1.0970 n         1 MOL     -0.313926
     54 C17         2.4590   -1.2650    2.4040 c3        1 MOL     -0.497719
     55 C18         3.1150   -2.6860    2.2750 c         1 MOL      0.745707
     56 O9          4.0610   -2.8630    1.4770 o         1 MOL     -0.661743
     57 H25         1.3750   -0.7220    0.6680 hn        1 MOL      0.301364
     58 H26         1.4540   -1.3750    2.8380 h1        1 MOL      0.195468
     59 H27         3.1620   -0.7250    3.0450 h1        1 MOL      0.195468
     60 N6          2.6820   -3.6530    3.1010 n         1 MOL     -0.362531
     61 C19         3.2880   -4.9940    3.2290 c3        1 MOL      0.020717
     62 C20         2.4830   -5.9790    2.3930 c         1 MOL      0.433424
     63 O10         3.1410   -6.8850    1.8560 o         1 MOL     -0.551111
     64 C21         3.4690   -5.3200    4.7130 c3        1 MOL     -0.207990
     65 C22         2.1580   -5.2480    5.5520 c         1 MOL      0.731215
     66 O11         2.2470   -5.3840    6.7520 o         1 MOL     -0.699501
     67 O12         1.0810   -5.1080    4.9350 o         1 MOL     -0.699501
     68 H28         1.8390   -3.4140    3.5960 hn        1 MOL      0.182307
     69 H29         4.3030   -4.9670    2.8260 h1        1 MOL      0.045068
     70 H30         4.2030   -4.6740    5.1780 hc        1 MOL      0.062225
     71 H31         3.7890   -6.3670    4.6900 hc        1 MOL      0.062225
     72 N7          1.1480   -5.8380    2.2960 n         1 MOL     -0.188860
     73 C23         0.2210   -6.6070    1.4210 c3        1 MOL     -0.122128
     74 C24         0.1270   -6.0670   -0.0440 c         1 MOL      0.625446
     75 O13        -0.2290   -6.7160   -1.0080 o         1 MOL     -0.578577
     76 H32         0.7300   -5.0610    2.7830 hn        1 MOL      0.251906
     77 H33        -0.7870   -6.6770    1.8260 h1        1 MOL      0.088270
     78 H34         0.6850   -7.5860    1.2920 h1        1 MOL      0.088270
     79 N8          0.4900   -4.7710   -0.2150 n         1 MOL     -0.457884
     80 C25         0.4530   -4.0660   -1.5140 c3        1 MOL      0.154875
     81 C26         0.1150   -2.6190   -1.2520 c         1 MOL      0.350729
     82 O14         0.2940   -2.0930   -0.1610 o         1 MOL     -0.443420
     83 C27         1.8690   -4.1540   -2.0700 c3        1 MOL      0.290761
     84 C28         2.4580   -5.5490   -2.3770 c3        1 MOL     -0.487471
     85 O15         1.9050   -3.3330   -3.2630 oh        1 MOL     -0.640350
     86 H35         0.8380   -4.1960    0.5440 hn        1 MOL      0.162629
     87 H36        -0.3080   -4.4790   -2.1710 h1        1 MOL      0.075894
     88 H37         2.4740   -3.5080   -1.4340 h1        1 MOL      0.019107
     89 H38         2.6420   -2.7350   -3.1320 ho        1 MOL      0.387082
     90 H39         1.8420   -6.0510   -3.1240 hc        1 MOL      0.137909
     91 H40         3.4440   -5.5570   -2.8390 hc        1 MOL      0.137909
     92 H41         2.6270   -6.1710   -1.5000 hc        1 MOL      0.137909
     93 N9         -0.4870   -1.9160   -2.1980 n         1 MOL     -0.154761
     94 C29        -1.0190   -0.5480   -2.0980 c3        1 MOL     -0.037912
     95 C30        -2.3400   -0.5250   -1.3740 c         1 MOL      0.525462
     96 O16        -2.5820    0.5070   -0.7230 o         1 MOL     -0.519206
     97 C31        -1.0720    0.1440   -3.5050 c3        1 MOL      0.024460
     98 C32         0.2350    0.0720   -4.3150 c3        1 MOL      0.096816
     99 C33        -1.4480    1.6250   -3.3190 c3        1 MOL     -0.301390
    100 C34         1.6140    0.4320   -3.6400 c3        1 MOL     -0.223788
    101 H42        -0.6800   -2.4700   -3.0120 hn        1 MOL      0.204724
    102 H43        -0.3900    0.0660   -1.4520 h1        1 MOL      0.095171
    103 H44        -1.9280   -0.2590   -4.0520 hc        1 MOL      0.021837
    104 H45         0.1850    0.6690   -5.2220 hc        1 MOL     -0.024125
    105 H46         0.3170   -0.9330   -4.7420 hc        1 MOL     -0.024125
    106 H47        -0.8490    2.1800   -2.5890 hc        1 MOL      0.088747
    107 H48        -1.3080    2.1410   -4.2670 hc        1 MOL      0.088747
    108 H49        -2.5130    1.6980   -3.0800 hc        1 MOL      0.088747
    109 H50         1.5670    1.4680   -3.2960 hc        1 MOL      0.057938
    110 H51         1.8960   -0.1880   -2.7790 hc        1 MOL      0.057938
    111 H52         2.4060    0.4260   -4.3940 hc        1 MOL      0.057938
    112 N10        -3.1010   -1.6040   -1.4200 n         1 MOL     -0.405031
    113 C35        -4.3700   -1.6140   -0.6610 c3        1 MOL      0.033015
    114 C36        -5.5660   -2.0450   -1.5210 c         1 MOL      0.721208
    115 O17        -5.4370   -2.6990   -2.5400 o         1 MOL     -0.547032
    116 C37        -4.2040   -2.3710    0.6380 c3        1 MOL      0.220691
    117 C38        -3.9620   -3.8650    0.4880 c3        1 MOL     -0.274631
    118 O18        -3.1290   -1.8060    1.3840 oh        1 MOL     -0.556501
    119 H53        -2.8560   -2.3340   -2.0760 hn        1 MOL      0.212569
    120 H54        -4.5990   -0.5810   -0.4220 h1        1 MOL      0.075991
    121 H55        -5.1150   -2.2050    1.2190 h1        1 MOL      0.008242
    122 H56        -3.0840   -2.3140    2.1950 ho        1 MOL      0.392667
    123 H57        -3.0960   -4.1040   -0.1320 hc        1 MOL      0.074212
    124 H58        -3.7260   -4.3670    1.4200 hc        1 MOL      0.074212
    125 H59        -4.8920   -4.3150    0.1330 hc        1 MOL      0.074212
    126 N11        -6.7710   -1.5450   -1.1640 n         1 MOL     -0.659664
    127 C39        -7.9210   -1.5470   -2.0350 c3        1 MOL     -0.026023
    128 C40        -9.0540   -0.4400   -1.8380 c         1 MOL      0.532452
    129 O19        -9.7560   -0.0600   -2.7960 o         1 MOL     -0.542069
    130 C41        -8.5520   -2.9210   -1.9120 c3        1 MOL      0.166922
    131 C42        -9.7720   -3.1770   -2.8000 c3        1 MOL     -0.187722
    132 O20        -8.9510   -3.1310   -0.5000 oh        1 MOL     -0.620922
    133 H60        -6.8170   -0.9630   -0.3410 hn        1 MOL      0.331089
    134 H61        -7.5030   -1.4110   -3.0240 h1        1 MOL      0.128369
    135 H62        -7.7990   -3.6860   -2.1140 h1        1 MOL      0.079650
    136 H63        -8.3570   -3.7850   -0.1380 ho        1 MOL      0.399850
    137 H64       -10.5800   -2.4900   -2.5310 hc        1 MOL      0.061156
    138 H65        -9.5100   -3.0390   -3.8490 hc        1 MOL      0.061156
    139 H66       -10.1420   -4.2070   -2.7630 hc        1 MOL      0.061156
    140 N12        -9.1220    0.0540   -0.5750 n         1 MOL     -0.275066
    141 C43       -10.0980    1.0640   -0.1600 c3        1 MOL     -0.193147
    142 C44        -9.4460    1.9290    0.9540 c         1 MOL      0.486311
    143 O21        -8.9830    1.3640    1.9540 o         1 MOL     -0.492290
    144 C45       -11.4680    0.6110    0.2850 c3        1 MOL     -0.112446
    145 C46       -12.3300   -0.0580   -0.8690 c3        1 MOL     -0.059056
    146 C47       -13.7040   -0.2720   -0.3520 c3        1 MOL     -0.147017
    147 C48       -14.6750    0.9260   -0.2810 c3        1 MOL      0.079049
    148 N13       -16.0430    0.4060   -0.1340 n4        1 MOL     -0.195838
    149 H67        -8.3060   -0.1870   -0.0260 hn        1 MOL      0.247605
    150 H68       -10.1810    1.7510   -0.9930 h1        1 MOL      0.142704
    151 H69       -12.0120    1.4660    0.6860 hc        1 MOL      0.100584
    152 H70       -11.4130   -0.0940    1.1160 hc        1 MOL      0.100584
    153 H71       -11.9920   -1.0600   -1.1260 hc        1 MOL      0.092510
    154 H72       -12.3660    0.6070   -1.7260 hc        1 MOL      0.092510
    155 H73       -13.6030   -0.6780    0.6490 hc        1 MOL      0.061279
    156 H74       -14.1480   -1.0440   -0.9750 hc        1 MOL      0.061279
    157 H75       -14.5460    1.5000   -1.2040 hx        1 MOL      0.061070
    158 H76       -14.4600    1.5780    0.5680 hx        1 MOL      0.061070
    159 H77       -16.4330   -0.0700   -0.9350 hn        1 MOL      0.228501
    160 H78       -16.0620   -0.2860    0.6030 hn        1 MOL      0.228501
    161 H79       -16.6750    1.1610    0.0950 hn        1 MOL      0.228501
    162 N14        -9.3350    3.2710    0.7830 n         1 MOL     -0.439134
    163 C49        -8.8170    4.2520    1.7370 c3        1 MOL      0.317523
    164 C50        -7.2730    4.1130    1.9770 c         1 MOL      0.303169
    165 O22        -6.9570    3.9110    3.1470 o         1 MOL     -0.504268
    166 C51        -9.2640    5.6690    1.2480 c3        1 MOL     -0.111989
    167 C52        -8.6030    6.8300    2.0220 c3        1 MOL     -0.222292
    168 C53        -9.2790    8.1440    1.6380 c         1 MOL      0.693354
    169 O23        -8.5950    9.0600    1.1100 o         1 MOL     -0.650186
    170 O24       -10.5140    8.2960    1.8210 o         1 MOL     -0.650186
    171 H80        -9.8050    3.5830   -0.0570 hn        1 MOL      0.206961
    172 H81        -9.3120    4.0530    2.6830 h1        1 MOL      0.041287
    173 H82       -10.3480    5.6440    1.4230 hc        1 MOL      0.036434
    174 H83        -8.9910    5.8520    0.2130 hc        1 MOL      0.036434
    175 H84        -7.5980    6.8560    1.6170 hc        1 MOL      0.069755
    176 H85        -8.6410    6.6200    3.0890 hc        1 MOL      0.069755
    177 N15        -6.3510    4.1540    0.9880 n         1 MOL     -0.295423
    178 C54        -6.4880    4.7570   -0.3620 c3        1 MOL     -0.161799
    179 H86        -7.2990    5.4850   -0.3540 h1        1 MOL      0.088531
    180 H87        -5.5570    5.2540   -0.6340 h1        1 MOL      0.088531
    181 H88        -6.7090    3.9740   -1.0890 h1        1 MOL      0.088531
    182 H89        -5.4210    3.8780    1.2650 hn        1 MOL      0.289089
    183 Ca1         7.3860    5.3370    0.1190 Ca        1 MOL      1.776930
    184 O25         8.3910    7.8110    0.8750 oh        1 MOL     -0.962722
    185 H90         7.8410    8.1880    1.5690 ho        1 MOL      0.470710
    186 H91         8.7860    8.5580    0.4480 ho        1 MOL      0.470710
@<TRIPOS>BOND
     1    1    2 1   
     2    1    4 1   
     3    1    5 1   
     4    1    6 1   
     5    2    3 2   
     6    2    7 1   
     7    7    8 1   
     8    7   15 1   
     9    8    9 1   
    10    8   11 1   
    11    8   16 1   
    12    9   10 2   
    13    9   19 1   
    14   11   12 1   
    15   11   17 1   
    16   11   18 1   
    17   12   13 1   
    18   12   14 1   
    19   19   20 1   
    20   19   28 1   
    21   20   21 1   
    22   20   23 1   
    23   20   29 1   
    24   21   22 2   
    25   21   41 1   
    26   23   24 1   
    27   23   30 1   
    28   23   31 1   
    29   24   25 1   
    30   24   32 1   
    31   24   33 1   
    32   25   26 1   
    33   25   34 1   
    34   25   35 1   
    35   26   27 1   
    36   26   36 1   
    37   26   37 1   
    38   27   38 1   
    39   27   39 1   
    40   27   40 1   
    41   41   42 1   
    42   41   49 1   
    43   42   43 1   
    44   42   45 1   
    45   42   50 1   
    46   43   44 2   
    47   43   53 1   
    48   45   46 1   
    49   45   51 1   
    50   45   52 1   
    51   46   47 1   
    52   46   48 1   
    53   53   54 1   
    54   53   57 1   
    55   54   55 1   
    56   54   58 1   
    57   54   59 1   
    58   55   56 2   
    59   55   60 1   
    60   60   61 1   
    61   60   68 1   
    62   61   62 1   
    63   61   64 1   
    64   61   69 1   
    65   62   63 2   
    66   62   72 1   
    67   64   65 1   
    68   64   70 1   
    69   64   71 1   
    70   65   66 1   
    71   65   67 1   
    72   72   73 1   
    73   72   76 1   
    74   73   74 1   
    75   73   77 1   
    76   73   78 1   
    77   74   75 2   
    78   74   79 1   
    79   79   80 1   
    80   79   86 1   
    81   80   81 1   
    82   80   83 1   
    83   80   87 1   
    84   81   82 2   
    85   81   93 1   
    86   83   84 1   
    87   83   85 1   
    88   83   88 1   
    89   84   90 1   
    90   84   91 1   
    91   84   92 1   
    92   85   89 1   
    93   93   94 1   
    94   93  101 1   
    95   94   95 1   
    96   94   97 1   
    97   94  102 1   
    98   95   96 2   
    99   95  112 1   
   100   97   98 1   
   101   97   99 1   
   102   97  103 1   
   103   98  100 1   
   104   98  104 1   
   105   98  105 1   
   106   99  106 1   
   107   99  107 1   
   108   99  108 1   
   109  100  109 1   
   110  100  110 1   
   111  100  111 1   
   112  112  113 1   
   113  112  119 1   
   114  113  114 1   
   115  113  116 1   
   116  113  120 1   
   117  114  115 2   
   118  114  126 1   
   119  116  117 1   
   120  116  118 1   
   121  116  121 1   
   122  117  123 1   
   123  117  124 1   
   124  117  125 1   
   125  118  122 1   
   126  126  127 1   
   127  126  133 1   
   128  127  128 1   
   129  127  130 1   
   130  127  134 1   
   131  128  129 2   
   132  128  140 1   
   133  130  131 1   
   134  130  132 1   
   135  130  135 1   
   136  131  137 1   
   137  131  138 1   
   138  131  139 1   
   139  132  136 1   
   140  140  141 1   
   141  140  149 1   
   142  141  142 1   
   143  141  144 1   
   144  141  150 1   
   145  142  143 2   
   146  142  162 1   
   147  144  145 1   
   148  144  151 1   
   149  144  152 1   
   150  145  146 1   
   151  145  153 1   
   152  145  154 1   
   153  146  147 1   
   154  146  155 1   
   155  146  156 1   
   156  147  148 1   
   157  147  157 1   
   158  147  158 1   
   159  148  159 1   
   160  148  160 1   
   161  148  161 1   
   162  162  163 1   
   163  162  171 1   
   164  163  164 1   
   165  163  166 1   
   166  163  172 1   
   167  164  165 2   
   168  164  177 1   
   169  166  167 1   
   170  166  173 1   
   171  166  174 1   
   172  167  168 1   
   173  167  175 1   
   174  167  176 1   
   175  168  169 1   
   176  168  170 1   
   177  177  178 1   
   178  177  182 1   
   179  178  179 1   
   180  178  180 1   
   181  178  181 1   
   182  184  185 1   
   183  184  186 1   
@<TRIPOS>SUBSTRUCTURE
     1 MOL         1 TEMP              0 ****  ****    0 ROOT
