@<TRIPOS>MOLECULE
MOL
  178   175     1     0     0
SMALL
resp


@<TRIPOS>ATOM
      1 C1          5.8700   -4.3290    2.6150 c3        1 MOL     -0.243653
      2 C2          6.9030   -3.1830    2.5550 c         1 MOL      0.627754
      3 O1          6.6480   -1.9740    2.7110 o         1 MOL     -0.536192
      4 H1          4.9510   -3.9640    3.0760 hc        1 MOL      0.056587
      5 H2          5.6560   -4.6790    1.6060 hc        1 MOL      0.056587
      6 H3          6.2720   -5.1500    3.2090 hc        1 MOL      0.056587
      7 N1          8.1690   -3.5590    2.2630 n         1 MOL     -0.631866
      8 C3          9.2590   -2.5560    2.0620 c3        1 MOL      0.350207
      9 C4          9.0240   -1.7290    0.7860 c         1 MOL      0.818772
     10 O2          8.4370   -2.2710   -0.1320 o         1 MOL     -0.666442
     11 C5         10.6630   -3.2150    2.0970 c3        1 MOL     -0.375968
     12 C6         11.7810   -2.2000    2.3050 c         1 MOL      0.765883
     13 O3         11.5370   -1.0050    2.6870 o         1 MOL     -0.725685
     14 O4         12.9960   -2.4650    2.1240 o         1 MOL     -0.725685
     15 H4          8.3260   -4.5460    2.1730 hn        1 MOL      0.305383
     16 H5          9.2140   -1.9120    2.9470 h1        1 MOL     -0.003728
     17 H6         10.8310   -3.9250    1.2880 hc        1 MOL      0.048413
     18 H7         10.6660   -3.7920    3.0210 hc        1 MOL      0.048413
     19 N2          9.4040   -0.4170    0.7450 n         1 MOL     -0.939815
     20 C7          8.9740    0.4680   -0.3630 c3        1 MOL      0.698564
     21 C8          7.4620    0.8420   -0.4180 c         1 MOL      0.424707
     22 O5          6.8470    1.1380    0.6150 o         1 MOL     -0.526876
     23 C9          9.8980    1.6640   -0.3520 c3        1 MOL     -0.480822
     24 H8         10.0530   -0.0370    1.4220 hn        1 MOL      0.384813
     25 H9          9.2050   -0.0090   -1.3260 h1        1 MOL     -0.070926
     26 H10        10.9350    1.4010   -0.1400 hc        1 MOL      0.104236
     27 H11         9.7610    2.1550   -1.3130 hc        1 MOL      0.104236
     28 H12         9.5520    2.3070    0.4580 hc        1 MOL      0.104236
     29 N3          6.8380    0.8890   -1.5850 n         1 MOL     -0.771355
     30 C10         5.4110    1.2270   -1.8020 c3        1 MOL      0.791416
     31 C11         5.2270    2.2270   -2.8860 c         1 MOL      0.379213
     32 O6          6.1130    2.4380   -3.6980 o         1 MOL     -0.538299
     33 C12         4.6690   -0.0730   -2.1570 c3        1 MOL     -0.597025
     34 C13         3.1690    0.1050   -2.1170 c         1 MOL      1.088563
     35 O7          2.6780    1.0720   -1.5270 o         1 MOL     -0.845397
     36 O8          2.4720   -0.7650   -2.6380 o         1 MOL     -0.845397
     37 H13         7.4150    0.8540   -2.4120 hn        1 MOL      0.309530
     38 H14         4.9840    1.6000   -0.8710 h1        1 MOL     -0.046772
     39 H15         4.8550   -0.7870   -1.3450 hc        1 MOL      0.088156
     40 H16         5.0750   -0.4410   -3.0940 hc        1 MOL      0.088156
     41 N4          4.1190    2.9610   -2.7950 n         1 MOL     -0.419208
     42 C14         3.7430    4.0580   -3.8100 c3        1 MOL     -0.191516
     43 C15         2.2130    4.3130   -3.7950 c         1 MOL      0.571181
     44 O9          1.7430    5.3650   -4.2950 o         1 MOL     -0.617578
     45 H17         3.4760    2.8560   -2.0160 hn        1 MOL      0.289213
     46 H18         4.0180    3.7060   -4.8090 h1        1 MOL      0.118228
     47 H19         4.2530    4.9450   -3.4550 h1        1 MOL      0.118228
     48 N5          1.4060    3.4070   -3.2690 n         1 MOL     -0.231089
     49 C16        -0.0700    3.5790   -3.0600 c3        1 MOL     -0.117515
     50 C17        -0.3660    4.5870   -1.9980 c         1 MOL      0.738016
     51 O10         0.1510    4.6430   -0.9010 o         1 MOL     -0.562508
     52 C18        -0.6360    2.2190   -2.5980 c3        1 MOL     -0.533001
     53 C19        -0.8180    1.2730   -3.7660 c         1 MOL      0.799500
     54 N6         -0.2460    0.0830   -3.7560 n         1 MOL     -0.837348
     55 O11        -1.5450    1.5830   -4.7170 o         1 MOL     -0.626067
     56 H20         1.8140    2.5420   -2.9460 hn        1 MOL      0.234270
     57 H21        -0.5300    3.8170   -4.0210 h1        1 MOL      0.100709
     58 H22        -1.5380    2.4510   -2.0320 hc        1 MOL      0.182828
     59 H23        -0.0440    1.8140   -1.7750 hc        1 MOL      0.182828
     60 H24         0.2410   -0.3010   -2.9480 hn        1 MOL      0.360370
     61 H25        -0.4990   -0.5870   -4.4680 hn        1 MOL      0.360370
     62 N7         -1.2080    5.5670   -2.3290 n         1 MOL     -0.398736
     63 C20        -1.4020    6.7400   -1.5400 c3        1 MOL     -0.168673
     64 C21        -2.3040    6.4990   -0.3090 c         1 MOL      0.544460
     65 O12        -3.3310    5.8330   -0.4950 o         1 MOL     -0.524982
     66 H26        -1.7020    5.5660   -3.2150 hn        1 MOL      0.274936
     67 H27        -1.8670    7.5870   -2.0290 h1        1 MOL      0.099891
     68 H28        -0.4450    7.1440   -1.2120 h1        1 MOL      0.099891
     69 N8         -1.8270    6.7560    0.9080 n         1 MOL     -0.376997
     70 C22        -2.6450    6.8960    2.1900 c3        1 MOL     -0.450050
     71 C23        -3.2000    5.6240    2.7950 c         1 MOL      0.540888
     72 O13        -4.2300    5.6160    3.4350 o         1 MOL     -0.560031
     73 C24        -1.8390    7.7210    3.2130 c3        1 MOL      0.422128
     74 C25        -0.6590    6.9800    3.7350 c3        1 MOL     -0.092505
     75 O14        -1.2710    8.8270    2.6330 oh        1 MOL     -0.607542
     76 H29        -0.8570    7.0370    0.8920 hn        1 MOL      0.267641
     77 H30        -3.5140    7.4930    1.9100 h1        1 MOL      0.204157
     78 H31        -2.4860    7.9530    4.0550 h1        1 MOL      0.036676
     79 H32        -0.8290    8.4410    1.8790 ho        1 MOL      0.353515
     80 H33        -0.6200    6.9150    4.8220 hc        1 MOL      0.015015
     81 H34        -0.6620    5.9340    3.4470 hc        1 MOL      0.015015
     82 H35         0.3150    7.4450    3.5590 hc        1 MOL      0.015015
     83 N9         -2.5140    4.5360    2.4600 n         1 MOL      0.030162
     84 C26        -2.8120    3.1050    2.7000 c3        1 MOL     -0.373093
     85 C27        -2.2720    2.3160    1.5070 c         1 MOL      0.525448
     86 O15        -1.2210    2.6350    0.9280 o         1 MOL     -0.452350
     87 C28        -2.1070    2.6040    4.0110 c3        1 MOL      0.206616
     88 C29        -0.5480    2.5990    3.8070 c3        1 MOL     -0.029829
     89 C30        -2.5960    3.3730    5.2780 c3        1 MOL     -0.248835
     90 C31         0.2290    2.3690    5.0830 c3        1 MOL     -0.313307
     91 H36        -1.7550    4.7090    1.8240 hn        1 MOL      0.156579
     92 H37        -3.8890    2.9670    2.7450 h1        1 MOL      0.136125
     93 H38        -2.3790    1.5760    4.2210 hc        1 MOL     -0.002817
     94 H39        -0.2400    3.5710    3.4100 hc        1 MOL      0.081533
     95 H40        -0.2660    1.8670    3.0490 hc        1 MOL      0.081533
     96 H41        -2.3220    2.7950    6.1590 hc        1 MOL      0.056234
     97 H42        -2.1940    4.3850    5.3430 hc        1 MOL      0.056234
     98 H43        -3.6870    3.4010    5.2700 hc        1 MOL      0.056234
     99 H44         0.0780    3.1470    5.8280 hc        1 MOL      0.077454
    100 H45         0.0020    1.3920    5.5260 hc        1 MOL      0.077454
    101 H46         1.2640    2.4150    4.7620 hc        1 MOL      0.077454
    102 N10        -2.8740    1.1090    1.2590 n         1 MOL     -0.524316
    103 C32        -2.4020    0.1590    0.1670 c3        1 MOL      0.163577
    104 C33        -3.5300   -0.4940   -0.5240 c         1 MOL      0.609150
    105 O16        -3.4500   -1.6070   -1.0080 o         1 MOL     -0.538502
    106 C34        -1.3440   -0.7010    0.8420 c3        1 MOL     -0.319070
    107 C35        -0.2840   -1.2980   -0.1150 c         1 MOL      0.733759
    108 O17        -0.4060   -1.3990   -1.3290 o         1 MOL     -0.697189
    109 O18         0.7790   -1.7610    0.4460 o         1 MOL     -0.697189
    110 H47        -3.7310    0.8550    1.7290 hn        1 MOL      0.286707
    111 H48        -1.8850    0.8180   -0.5320 h1        1 MOL      0.082662
    112 H49        -1.7110   -1.5510    1.4220 hc        1 MOL      0.111245
    113 H50        -0.7880   -0.0490    1.5150 hc        1 MOL      0.111245
    114 N11        -4.7000    0.0890   -0.6230 n         1 MOL     -0.557176
    115 C36        -5.9720   -0.5490   -0.8800 c3        1 MOL      0.395277
    116 C37        -6.1790   -1.7080    0.2240 c         1 MOL      0.283914
    117 O19        -5.6780   -1.5780    1.4020 o         1 MOL     -0.551646
    118 C38        -7.1780    0.4490   -0.9840 c3        1 MOL     -0.438186
    119 C39        -8.5460   -0.1510   -1.1710 ca        1 MOL      0.168288
    120 C40        -9.0220   -0.5810   -2.4120 ca        1 MOL     -0.212038
    121 C41        -9.2740   -0.4870    0.0270 ca        1 MOL     -0.212038
    122 C42       -10.1360   -1.4350   -2.4690 ca        1 MOL     -0.088238
    123 C43       -10.4680   -1.2230   -0.0660 ca        1 MOL     -0.088238
    124 C44       -10.9030   -1.7420   -1.2970 ca        1 MOL     -0.120018
    125 H51        -4.7850    1.0300   -0.2620 hn        1 MOL      0.248245
    126 H52        -5.8550   -0.9730   -1.8860 h1        1 MOL      0.017207
    127 H53        -6.9120    1.0240   -1.8750 hc        1 MOL      0.145373
    128 H54        -7.2960    1.0980   -0.1230 hc        1 MOL      0.145373
    129 H55        -8.3960   -0.5030   -3.2830 ha        1 MOL      0.136315
    130 H56        -8.8350   -0.2720    0.9900 ha        1 MOL      0.136315
    131 H57       -10.4150   -1.8740   -3.4170 ha        1 MOL      0.107260
    132 H58       -10.9940   -1.5750    0.8150 ha        1 MOL      0.107260
    133 H59       -11.7370   -2.4050   -1.4090 ha        1 MOL      0.108850
    134 N12        -6.6530   -2.9170   -0.1810 n         1 MOL      0.107787
    135 C45        -7.0990   -3.9680    0.8040 c3        1 MOL     -0.227029
    136 C46        -5.9760   -4.8100    1.4260 c         1 MOL      0.507901
    137 O20        -6.1480   -5.8810    1.9980 o         1 MOL     -0.529998
    138 C47        -8.0280   -4.8010   -0.0710 c3        1 MOL      0.368269
    139 C48        -7.5210   -4.7270   -1.4590 c3        1 MOL     -0.131572
    140 C49        -6.9060   -3.2770   -1.5330 c3        1 MOL     -0.014653
    141 H60        -7.6770   -3.6070    1.6580 h1        1 MOL      0.097530
    142 H61        -8.1100   -5.8260    0.2770 hc        1 MOL     -0.088337
    143 H62        -9.0410   -4.3810   -0.0340 hc        1 MOL     -0.088337
    144 H63        -6.7850   -5.5110   -1.5860 hc        1 MOL      0.036337
    145 H64        -8.3540   -4.8270   -2.1560 hc        1 MOL      0.036337
    146 H65        -6.0130   -3.2320   -2.1640 h1        1 MOL      0.027345
    147 H66        -7.6610   -2.6090   -1.9380 h1        1 MOL      0.027345
    148 N13        -4.7640   -4.2690    1.1250 n         1 MOL     -0.399856
    149 C50        -3.3910   -4.8620    1.3900 c3        1 MOL     -0.019598
    150 C51        -2.8410   -4.4370    2.7890 c         1 MOL      0.581828
    151 O21        -1.9580   -5.1110    3.3070 o         1 MOL     -0.502821
    152 C52        -2.4370   -4.5200    0.2140 c3        1 MOL      0.223382
    153 C53        -1.5270   -5.7420   -0.1570 c3        1 MOL     -0.332449
    154 C54        -0.3680   -5.3400   -1.0030 c         1 MOL      0.818187
    155 O22         0.7880   -5.4430   -0.6460 o         1 MOL     -0.770673
    156 O23        -0.5720   -4.7940   -2.0590 o         1 MOL     -0.770673
    157 H67        -4.7780   -3.3470    0.6950 hn        1 MOL      0.211856
    158 H68        -3.4820   -5.9540    1.3400 h1        1 MOL      0.076899
    159 H69        -1.8350   -3.6810    0.5630 hc        1 MOL     -0.035220
    160 H70        -2.9810   -4.2150   -0.6840 hc        1 MOL     -0.035220
    161 H71        -2.0850   -6.5380   -0.6490 hc        1 MOL      0.061711
    162 H72        -1.2050   -6.1370    0.8020 hc        1 MOL      0.061711
    163 N14        -3.4310   -3.3090    3.3880 n         1 MOL     -0.459042
    164 C55        -3.0320   -2.8750    4.7760 c3        1 MOL     -0.280154
    165 H73        -3.6610   -3.3790    5.5090 h1        1 MOL      0.126750
    166 H74        -1.9890   -3.1370    4.9520 h1        1 MOL      0.126750
    167 H75        -3.1570   -1.7960    4.8700 h1        1 MOL      0.126750
    168 H76        -3.8770   -2.6280    2.7810 hn        1 MOL      0.333232
    169 Ca1         1.4080   -3.0810   -1.8060 Ca        1 MOL      1.731541
    170 O24         3.6600   -4.5400   -2.6130 oh        1 MOL     -0.860502
    171 H77         3.9190   -5.0440   -3.3880 ho        1 MOL      0.427759
    172 H78         4.4320   -4.5710   -2.0420 ho        1 MOL      0.427759
    173 O25         3.6220   -2.7240   -0.3480 oh        1 MOL     -0.860502
    174 H79         4.4150   -3.0990   -0.7040 ho        1 MOL      0.427759
    175 H80         3.9220   -1.9600    0.1510 ho        1 MOL      0.427759
    176 O26         1.3720   -3.7810   -4.3170 oh        1 MOL     -0.860502
    177 H81         2.0700   -4.0960   -4.8870 ho        1 MOL      0.427759
    178 H82         0.7990   -3.2790   -4.8980 ho        1 MOL      0.427759
@<TRIPOS>BOND
     1    1    2 1   
     2    1    4 1   
     3    1    5 1   
     4    1    6 1   
     5    2    3 2   
     6    2    7 1   
     7    7    8 1   
     8    7   15 1   
     9    8    9 1   
    10    8   11 1   
    11    8   16 1   
    12    9   10 2   
    13    9   19 1   
    14   11   12 1   
    15   11   17 1   
    16   11   18 1   
    17   12   13 1   
    18   12   14 1   
    19   19   20 1   
    20   19   24 1   
    21   20   21 1   
    22   20   23 1   
    23   20   25 1   
    24   21   22 2   
    25   21   29 1   
    26   23   26 1   
    27   23   27 1   
    28   23   28 1   
    29   29   30 1   
    30   29   37 1   
    31   30   31 1   
    32   30   33 1   
    33   30   38 1   
    34   31   32 2   
    35   31   41 1   
    36   33   34 1   
    37   33   39 1   
    38   33   40 1   
    39   34   35 1   
    40   34   36 1   
    41   41   42 1   
    42   41   45 1   
    43   42   43 1   
    44   42   46 1   
    45   42   47 1   
    46   43   44 2   
    47   43   48 1   
    48   48   49 1   
    49   48   56 1   
    50   49   50 1   
    51   49   52 1   
    52   49   57 1   
    53   50   51 2   
    54   50   62 1   
    55   52   53 1   
    56   52   58 1   
    57   52   59 1   
    58   53   54 1   
    59   53   55 2   
    60   54   60 1   
    61   54   61 1   
    62   62   63 1   
    63   62   66 1   
    64   63   64 1   
    65   63   67 1   
    66   63   68 1   
    67   64   65 2   
    68   64   69 1   
    69   69   70 1   
    70   69   76 1   
    71   70   71 1   
    72   70   73 1   
    73   70   77 1   
    74   71   72 2   
    75   71   83 1   
    76   73   74 1   
    77   73   75 1   
    78   73   78 1   
    79   74   80 1   
    80   74   81 1   
    81   74   82 1   
    82   75   79 1   
    83   83   84 1   
    84   83   91 1   
    85   84   85 1   
    86   84   87 1   
    87   84   92 1   
    88   85   86 2   
    89   85  102 1   
    90   87   88 1   
    91   87   89 1   
    92   87   93 1   
    93   88   90 1   
    94   88   94 1   
    95   88   95 1   
    96   89   96 1   
    97   89   97 1   
    98   89   98 1   
    99   90   99 1   
   100   90  100 1   
   101   90  101 1   
   102  102  103 1   
   103  102  110 1   
   104  103  104 1   
   105  103  106 1   
   106  103  111 1   
   107  104  105 2   
   108  104  114 1   
   109  106  107 1   
   110  106  112 1   
   111  106  113 1   
   112  107  108 1   
   113  107  109 1   
   114  114  115 1   
   115  114  125 1   
   116  115  116 1   
   117  115  118 1   
   118  115  126 1   
   119  116  117 2   
   120  116  134 1   
   121  118  119 1   
   122  118  127 1   
   123  118  128 1   
   124  119  120 ar  
   125  119  121 ar  
   126  120  122 ar  
   127  120  129 1   
   128  121  123 ar  
   129  121  130 1   
   130  122  124 ar  
   131  122  131 1   
   132  123  124 ar  
   133  123  132 1   
   134  124  133 1   
   135  134  135 1   
   136  134  140 1   
   137  135  136 1   
   138  135  138 1   
   139  135  141 1   
   140  136  137 2   
   141  136  148 1   
   142  138  139 1   
   143  138  142 1   
   144  138  143 1   
   145  139  140 1   
   146  139  144 1   
   147  139  145 1   
   148  140  146 1   
   149  140  147 1   
   150  148  149 1   
   151  148  157 1   
   152  149  150 1   
   153  149  152 1   
   154  149  158 1   
   155  150  151 2   
   156  150  163 1   
   157  152  153 1   
   158  152  159 1   
   159  152  160 1   
   160  153  154 1   
   161  153  161 1   
   162  153  162 1   
   163  154  155 1   
   164  154  156 1   
   165  163  164 1   
   166  163  168 1   
   167  164  165 1   
   168  164  166 1   
   169  164  167 1   
   170  170  171 1   
   171  170  172 1   
   172  173  174 1   
   173  173  175 1   
   174  176  177 1   
   175  176  178 1   
@<TRIPOS>SUBSTRUCTURE
     1 MOL         1 TEMP              0 ****  ****    0 ROOT
