@<TRIPOS>MOLECULE
MOL
  194   186     1     0     0
SMALL
resp


@<TRIPOS>ATOM
      1 C1          1.5290    1.1140    2.6510 c3        1 MOL     -0.236259
      2 C2          2.8220    0.6850    2.0000 c         1 MOL      0.520847
      3 O1          3.1140    0.9920    0.8310 o         1 MOL     -0.570838
      4 H1          0.7660    0.3550    2.4770 hc        1 MOL      0.064467
      5 H2          1.6840    1.2330    3.7240 hc        1 MOL      0.064467
      6 H3          1.2030    2.0610    2.2230 hc        1 MOL      0.064467
      7 N1          3.5170   -0.2080    2.6870 n         1 MOL     -0.288351
      8 C3          4.7750   -0.7940    2.2660 c3        1 MOL      0.020254
      9 C4          4.7000   -2.1150    1.5310 c         1 MOL      0.460135
     10 O2          5.6940   -2.4790    0.8720 o         1 MOL     -0.468533
     11 C5          5.7300   -0.8510    3.4350 c3        1 MOL     -0.165765
     12 C6          5.1290   -1.2970    4.7900 c         1 MOL      0.606965
     13 O3          5.6610   -0.7640    5.8070 o         1 MOL     -0.655971
     14 O4          4.2010   -2.1000    4.8970 o         1 MOL     -0.655971
     15 H4          3.0670   -0.5820    3.5100 hn        1 MOL      0.229005
     16 H5          5.1720   -0.1130    1.5160 h1        1 MOL      0.093908
     17 H6          6.0300    0.1720    3.6270 hc        1 MOL      0.074214
     18 H7          6.6090   -1.4250    3.1450 hc        1 MOL      0.074214
     19 N2          3.5890   -2.9390    1.6330 n         1 MOL     -0.429967
     20 C7          3.4610   -4.3810    1.2220 c3        1 MOL      0.219479
     21 C8          3.9100   -4.6980   -0.2290 c         1 MOL      0.351811
     22 O5          4.1260   -5.8930   -0.4850 o         1 MOL     -0.499741
     23 C9          4.1730   -5.2720    2.2740 c3        1 MOL     -0.174028
     24 C10         3.4180   -5.4730    3.5360 c3        1 MOL      0.082740
     25 C11         4.2010   -6.2950    4.5480 c3        1 MOL     -0.279856
     26 C12         5.3590   -5.6030    5.3030 c3        1 MOL     -0.031733
     27 N3          4.9200   -4.4060    6.0320 n4        1 MOL     -0.194702
     28 H8          2.8470   -2.4950    2.1480 hn        1 MOL      0.201823
     29 H9          2.3980   -4.6380    1.2380 h1        1 MOL      0.017529
     30 H10         5.1270   -4.8450    2.5830 hc        1 MOL      0.089848
     31 H11         4.2560   -6.2810    1.8830 hc        1 MOL      0.089848
     32 H12         2.5510   -6.0510    3.1970 hc        1 MOL      0.004683
     33 H13         3.0780   -4.5200    3.9390 hc        1 MOL      0.004683
     34 H14         4.6820   -7.1300    4.0380 hc        1 MOL      0.107918
     35 H15         3.5070   -6.7590    5.2660 hc        1 MOL      0.107918
     36 H16         6.2170   -5.4240    4.6560 hx        1 MOL      0.099153
     37 H17         5.7820   -6.2590    6.0650 hx        1 MOL      0.099153
     38 H18         4.5610   -3.7150    5.3920 hn        1 MOL      0.270142
     39 H19         4.1420   -4.5150    6.6690 hn        1 MOL      0.270142
     40 H20         5.6140   -3.9650    6.6200 hn        1 MOL      0.270142
     41 N4          3.9380   -3.7110   -1.1440 n         1 MOL     -0.334950
     42 C13         4.5150   -3.9120   -2.5380 c3        1 MOL      0.109699
     43 C14         5.2380   -2.6140   -3.0080 c         1 MOL      0.422828
     44 O6          5.4060   -2.3500   -4.1840 o         1 MOL     -0.473758
     45 C15         3.4210   -4.3510   -3.4680 c3        1 MOL     -0.401648
     46 C16         2.2530   -3.4780   -3.5270 c         1 MOL      0.800059
     47 O7          2.2340   -2.3480   -4.0720 o         1 MOL     -0.704382
     48 O8          1.1800   -3.9440   -3.0780 o         1 MOL     -0.704382
     49 H21         3.5750   -2.8470   -0.7770 hn        1 MOL      0.148874
     50 H22         5.3110   -4.6460   -2.4100 h1        1 MOL      0.118103
     51 H23         3.0910   -5.3400   -3.1550 hc        1 MOL      0.122428
     52 H24         3.8660   -4.4170   -4.4600 hc        1 MOL      0.122428
     53 N5          5.6450   -1.7330   -2.0670 n         1 MOL     -0.303220
     54 C17         6.0310   -0.3230   -2.1760 c3        1 MOL     -0.013142
     55 C18         7.4730    0.0500   -2.5190 c         1 MOL      0.527680
     56 O9          8.2590   -0.8700   -2.9600 o         1 MOL     -0.530480
     57 H25         5.7420   -2.1270   -1.1390 hn        1 MOL      0.206552
     58 H26         5.7850    0.2080   -1.2510 h1        1 MOL      0.087749
     59 H27         5.2740    0.1600   -2.7870 h1        1 MOL      0.087749
     60 N6          7.8400    1.3070   -2.5520 n         1 MOL     -0.580244
     61 C19         7.0350    2.5240   -2.0930 c3        1 MOL      0.292817
     62 C20         6.5240    2.4280   -0.6320 c         1 MOL      0.411354
     63 O10         7.2260    1.9330    0.2510 o         1 MOL     -0.528836
     64 C21         7.9030    3.7320   -2.4000 c3        1 MOL     -0.288262
     65 C22         7.1840    4.9940   -1.9890 c         1 MOL      0.626332
     66 N7          6.5070    5.7290   -2.8600 n         1 MOL     -0.772214
     67 O11         7.1340    5.2760   -0.8370 o         1 MOL     -0.519093
     68 H28         8.7520    1.5510   -2.9150 hn        1 MOL      0.334931
     69 H29         6.1530    2.6200   -2.7380 h1        1 MOL     -0.006384
     70 H30         8.1150    3.7590   -3.4670 hc        1 MOL      0.098894
     71 H31         8.8900    3.6700   -1.9410 hc        1 MOL      0.098894
     72 H32         6.5770    5.5490   -3.8540 hn        1 MOL      0.364359
     73 H33         6.0280    6.5050   -2.4180 hn        1 MOL      0.364359
     74 N8          5.3260    2.8260   -0.3080 n         1 MOL     -0.377351
     75 C23         4.3020    3.3680   -1.1950 c3        1 MOL      0.038050
     76 C24         3.1410    4.0200   -0.3490 c         1 MOL      0.609436
     77 O12         3.2170    4.0900    0.8940 o         1 MOL     -0.508704
     78 H34         5.2310    2.7960    0.6960 hn        1 MOL      0.330135
     79 H35         3.8340    2.5520   -1.7450 h1        1 MOL      0.017643
     80 H36         4.7370    4.0550   -1.9280 h1        1 MOL      0.017643
     81 N9          2.0290    4.4800   -1.0050 n         1 MOL     -0.654579
     82 C25         0.9420    5.1740   -0.3820 c3        1 MOL      0.318182
     83 C26        -0.2870    4.3230   -0.1030 c         1 MOL      0.715278
     84 O13        -0.4850    3.3080   -0.7180 o         1 MOL     -0.596524
     85 C27         0.5300    6.3960   -1.1480 c3        1 MOL     -0.086578
     86 C28        -0.3210    7.3130   -0.3000 ca        1 MOL      0.017562
     87 C29        -1.6820    7.5990   -0.6640 ca        1 MOL     -0.167208
     88 C30         0.2640    8.0020    0.8200 ca        1 MOL     -0.167208
     89 C31        -2.4150    8.5700   -0.0030 ca        1 MOL     -0.230727
     90 C32        -0.4910    8.9840    1.5070 ca        1 MOL     -0.230727
     91 C33        -1.8400    9.2330    1.1300 ca        1 MOL      0.314693
     92 O14        -2.5390   10.1260    1.8660 oh        1 MOL     -0.487604
     93 H37         2.0080    4.3420   -2.0050 hn        1 MOL      0.307036
     94 H38         1.2310    5.4920    0.6240 h1        1 MOL     -0.025715
     95 H39        -0.0350    6.0320   -2.0040 hc        1 MOL      0.043519
     96 H40         1.4040    6.9160   -1.5470 hc        1 MOL      0.043519
     97 H41        -2.1750    7.0220   -1.4310 ha        1 MOL      0.143272
     98 H42         1.2660    7.7840    1.1520 ha        1 MOL      0.143272
     99 H43        -3.4700    8.5810   -0.1810 ha        1 MOL      0.138868
    100 H44        -0.1310    9.6350    2.2930 ha        1 MOL      0.138868
    101 H45        -2.0110   10.5130    2.5560 ho        1 MOL      0.371627
    102 N10        -1.1600    4.8090    0.7930 n         1 MOL     -0.611339
    103 C34        -2.4150    4.1340    1.0820 c3        1 MOL     -0.099332
    104 C35        -3.4100    4.1890   -0.1500 c         1 MOL      0.497441
    105 O15        -3.5540    5.1370   -0.9210 o         1 MOL     -0.457251
    106 C36        -3.0290    4.6950    2.4090 c3        1 MOL      0.261821
    107 C37        -2.3490    4.1820    3.6350 c3        1 MOL      0.081836
    108 C38        -3.1640    6.2240    2.3400 c3        1 MOL      0.084803
    109 C39        -3.1090    4.3860    4.9470 c3        1 MOL     -0.326015
    110 H46        -0.9580    5.6350    1.3320 hn        1 MOL      0.285596
    111 H47        -2.3510    3.0580    1.2410 h1        1 MOL      0.105840
    112 H48        -4.0450    4.3160    2.3880 hc        1 MOL     -0.056440
    113 H49        -1.4220    4.7520    3.7290 hc        1 MOL     -0.012470
    114 H50        -2.0360    3.1530    3.4500 hc        1 MOL     -0.012470
    115 H51        -3.5210    6.4880    1.3420 hc        1 MOL     -0.026593
    116 H52        -3.8550    6.4940    3.1290 hc        1 MOL     -0.026593
    117 H53        -2.1870    6.6980    2.4640 hc        1 MOL     -0.026593
    118 H54        -2.3790    4.0960    5.6970 hc        1 MOL      0.082694
    119 H55        -3.3940    5.4280    5.0820 hc        1 MOL      0.082694
    120 H56        -3.9600    3.7170    5.0430 hc        1 MOL      0.082694
    121 N11        -4.1960    3.1040   -0.2120 n         1 MOL     -0.248567
    122 C40        -5.2060    2.8440   -1.1500 c3        1 MOL      0.021800
    123 C41        -5.3750    1.3580   -1.6770 c         1 MOL      0.473034
    124 O16        -4.9470    0.4110   -0.9750 o         1 MOL     -0.393665
    125 C42        -6.5350    3.3950   -0.6000 c3        1 MOL      0.074501
    126 O17        -6.8870    2.8580    0.6100 oh        1 MOL     -0.573925
    127 H57        -3.8350    2.3020    0.2780 hn        1 MOL      0.174709
    128 H58        -5.0490    3.4640   -2.0390 h1        1 MOL      0.021526
    129 H59        -7.2760    3.1190   -1.3460 h1        1 MOL      0.033496
    130 H60        -6.4070    4.4640   -0.4080 h1        1 MOL      0.033496
    131 H61        -7.8140    3.0950    0.7170 ho        1 MOL      0.407962
    132 N12        -6.1650    1.1490   -2.7800 n         1 MOL     -0.443808
    133 C43        -6.5950   -0.1700   -3.2990 c3        1 MOL     -0.090919
    134 C44        -7.1140   -1.1620   -2.3310 c         1 MOL      0.640101
    135 O18        -6.7080   -2.3540   -2.3510 o         1 MOL     -0.543617
    136 C45        -5.5360   -0.7060   -4.3210 c3        1 MOL     -0.113161
    137 H62        -6.6320    1.9070   -3.2500 hn        1 MOL      0.325898
    138 H63        -7.4650    0.1600   -3.8680 h1        1 MOL      0.100167
    139 H64        -5.9670   -1.3960   -5.0450 hc        1 MOL      0.051168
    140 H65        -5.2420    0.1270   -4.9570 hc        1 MOL      0.051168
    141 H66        -4.5710   -1.0380   -3.9220 hc        1 MOL      0.051168
    142 N13        -8.0180   -0.7230   -1.4170 n         1 MOL     -0.672774
    143 C46        -8.7090   -1.6130   -0.4700 c3        1 MOL      0.421421
    144 C47        -7.9550   -2.5440    0.4250 c         1 MOL      0.195994
    145 O19        -8.5550   -3.5720    0.9060 o         1 MOL     -0.431534
    146 C48        -9.8720   -2.3980   -1.1320 c3        1 MOL     -0.526668
    147 H67        -8.3030    0.2440   -1.4220 hn        1 MOL      0.357888
    148 H68        -9.1680   -0.9530    0.2560 h1        1 MOL     -0.014966
    149 H69       -10.4020   -1.6770   -1.7560 hc        1 MOL      0.148633
    150 H70        -9.4770   -3.2890   -1.6230 hc        1 MOL      0.148633
    151 H71       -10.5430   -2.7920   -0.3690 hc        1 MOL      0.148633
    152 N14        -6.6960   -2.1980    0.5640 n         1 MOL     -0.014318
    153 C49        -5.7850   -3.0080    1.3340 c3        1 MOL     -0.054467
    154 C50        -6.3890   -3.1850    2.8020 c         1 MOL      0.352370
    155 O20        -6.5100   -4.3190    3.2750 o         1 MOL     -0.434535
    156 C51        -4.3800   -2.4000    1.4900 c3        1 MOL      0.155842
    157 C52        -3.3410   -3.4750    1.7960 c3        1 MOL     -0.118984
    158 C53        -3.3180   -4.6290    0.6910 c         1 MOL      0.512245
    159 O21        -2.7290   -4.3280   -0.4010 o         1 MOL     -0.606592
    160 O22        -3.6980   -5.7590    1.1090 o         1 MOL     -0.606592
    161 H72        -6.4620   -1.3320    0.0950 hn        1 MOL      0.071240
    162 H73        -5.6860   -3.9800    0.8430 h1        1 MOL      0.126459
    163 H74        -4.3250   -1.6410    2.2660 hc        1 MOL     -0.083900
    164 H75        -4.0610   -1.9410    0.5470 hc        1 MOL     -0.083900
    165 H76        -3.4860   -3.9090    2.7800 hc        1 MOL      0.031025
    166 H77        -2.3710   -2.9970    1.9320 hc        1 MOL      0.031025
    167 N15        -6.8390   -2.0740    3.5010 n         1 MOL     -0.271160
    168 C54        -7.6790   -2.2230    4.6710 c3        1 MOL     -0.044356
    169 H78        -8.7110   -2.3780    4.3590 h1        1 MOL      0.053487
    170 H79        -7.3430   -3.0820    5.2530 h1        1 MOL      0.053487
    171 H80        -7.6160   -1.3220    5.2810 h1        1 MOL      0.053487
    172 H81        -6.6640   -1.1390    3.1520 hn        1 MOL      0.217392
    173 Ca1        -1.1910   -3.4250   -2.2320 Ca        1 MOL      1.762148
    174 O23         0.0710   -1.1360   -2.9210 oh        1 MOL     -0.844598
    175 H82         0.4080   -0.4010   -2.4180 ho        1 MOL      0.414547
    176 H83         0.8390   -1.4690   -3.3980 ho        1 MOL      0.414547
    177 O24        -2.2500   -5.9950   -3.0210 oh        1 MOL     -0.844598
    178 H84        -2.7200   -6.2980   -3.7980 ho        1 MOL      0.414547
    179 H85        -2.8060   -6.2600   -2.2810 ho        1 MOL      0.414547
    180 O25        -1.3850   -3.6090   -5.0030 oh        1 MOL     -0.844598
    181 H86        -1.1130   -3.0160   -5.7090 ho        1 MOL      0.414547
    182 H87        -1.7350   -4.3810   -5.4650 ho        1 MOL      0.414547
    183 O26        -3.8530   -3.2430   -2.9710 oh        1 MOL     -0.844598
    184 H88        -4.4760   -2.8760   -2.3450 ho        1 MOL      0.414547
    185 H89        -4.4020   -3.5930   -3.6790 ho        1 MOL      0.414547
    186 O27        -2.5230   -1.2530   -1.2580 oh        1 MOL     -0.844598
    187 H90        -2.4120   -0.3420   -1.5310 ho        1 MOL      0.414547
    188 H91        -3.4220   -1.2990   -0.9070 ho        1 MOL      0.414547
    189 O28         0.4450   -2.7920    0.0320 oh        1 MOL     -0.844598
    190 H92         0.4640   -2.8770    0.9820 ho        1 MOL      0.414547
    191 H93         1.2000   -2.2230   -0.1610 ho        1 MOL      0.414547
    192 O29         0.1470   -5.7100   -0.7400 oh        1 MOL     -0.844598
    193 H94         0.3630   -5.4440    0.1530 ho        1 MOL      0.414547
    194 H95         0.7430   -6.4330   -0.9280 ho        1 MOL      0.414547
@<TRIPOS>BOND
     1    1    2 1   
     2    1    4 1   
     3    1    5 1   
     4    1    6 1   
     5    2    3 2   
     6    2    7 1   
     7    7    8 1   
     8    7   15 1   
     9    8    9 1   
    10    8   11 1   
    11    8   16 1   
    12    9   10 2   
    13    9   19 1   
    14   11   12 1   
    15   11   17 1   
    16   11   18 1   
    17   12   13 1   
    18   12   14 1   
    19   19   20 1   
    20   19   28 1   
    21   20   21 1   
    22   20   23 1   
    23   20   29 1   
    24   21   22 2   
    25   21   41 1   
    26   23   24 1   
    27   23   30 1   
    28   23   31 1   
    29   24   25 1   
    30   24   32 1   
    31   24   33 1   
    32   25   26 1   
    33   25   34 1   
    34   25   35 1   
    35   26   27 1   
    36   26   36 1   
    37   26   37 1   
    38   27   38 1   
    39   27   39 1   
    40   27   40 1   
    41   41   42 1   
    42   41   49 1   
    43   42   43 1   
    44   42   45 1   
    45   42   50 1   
    46   43   44 2   
    47   43   53 1   
    48   45   46 1   
    49   45   51 1   
    50   45   52 1   
    51   46   47 1   
    52   46   48 1   
    53   53   54 1   
    54   53   57 1   
    55   54   55 1   
    56   54   58 1   
    57   54   59 1   
    58   55   56 2   
    59   55   60 1   
    60   60   61 1   
    61   60   68 1   
    62   61   62 1   
    63   61   64 1   
    64   61   69 1   
    65   62   63 2   
    66   62   74 1   
    67   64   65 1   
    68   64   70 1   
    69   64   71 1   
    70   65   66 1   
    71   65   67 2   
    72   66   72 1   
    73   66   73 1   
    74   74   75 1   
    75   74   78 1   
    76   75   76 1   
    77   75   79 1   
    78   75   80 1   
    79   76   77 2   
    80   76   81 1   
    81   81   82 1   
    82   81   93 1   
    83   82   83 1   
    84   82   85 1   
    85   82   94 1   
    86   83   84 2   
    87   83  102 1   
    88   85   86 1   
    89   85   95 1   
    90   85   96 1   
    91   86   87 ar  
    92   86   88 ar  
    93   87   89 ar  
    94   87   97 1   
    95   88   90 ar  
    96   88   98 1   
    97   89   91 ar  
    98   89   99 1   
    99   90   91 ar  
   100   90  100 1   
   101   91   92 1   
   102   92  101 1   
   103  102  103 1   
   104  102  110 1   
   105  103  104 1   
   106  103  106 1   
   107  103  111 1   
   108  104  105 2   
   109  104  121 1   
   110  106  107 1   
   111  106  108 1   
   112  106  112 1   
   113  107  109 1   
   114  107  113 1   
   115  107  114 1   
   116  108  115 1   
   117  108  116 1   
   118  108  117 1   
   119  109  118 1   
   120  109  119 1   
   121  109  120 1   
   122  121  122 1   
   123  121  127 1   
   124  122  123 1   
   125  122  125 1   
   126  122  128 1   
   127  123  124 2   
   128  123  132 1   
   129  125  126 1   
   130  125  129 1   
   131  125  130 1   
   132  126  131 1   
   133  132  133 1   
   134  132  137 1   
   135  133  134 1   
   136  133  136 1   
   137  133  138 1   
   138  134  135 2   
   139  134  142 1   
   140  136  139 1   
   141  136  140 1   
   142  136  141 1   
   143  142  143 1   
   144  142  147 1   
   145  143  144 1   
   146  143  146 1   
   147  143  148 1   
   148  144  145 2   
   149  144  152 1   
   150  146  149 1   
   151  146  150 1   
   152  146  151 1   
   153  152  153 1   
   154  152  161 1   
   155  153  154 1   
   156  153  156 1   
   157  153  162 1   
   158  154  155 2   
   159  154  167 1   
   160  156  157 1   
   161  156  163 1   
   162  156  164 1   
   163  157  158 1   
   164  157  165 1   
   165  157  166 1   
   166  158  159 1   
   167  158  160 1   
   168  167  168 1   
   169  167  172 1   
   170  168  169 1   
   171  168  170 1   
   172  168  171 1   
   173  174  175 1   
   174  174  176 1   
   175  177  178 1   
   176  177  179 1   
   177  180  181 1   
   178  180  182 1   
   179  183  184 1   
   180  183  185 1   
   181  186  187 1   
   182  186  188 1   
   183  189  190 1   
   184  189  191 1   
   185  192  193 1   
   186  192  194 1   
@<TRIPOS>SUBSTRUCTURE
     1 MOL         1 TEMP              0 ****  ****    0 ROOT
