@<TRIPOS>MOLECULE
MOL
  192   187     1     0     0
SMALL
resp


@<TRIPOS>ATOM
      1 C1          9.6750    1.4280    1.1240 c3        1 MOL     -0.536628
      2 C2          8.3610    1.0600    0.3480 c         1 MOL      0.609303
      3 O1          7.2270    1.3230    0.8900 o         1 MOL     -0.631093
      4 H1          9.6560    2.4860    1.3860 hc        1 MOL      0.139919
      5 H2          9.7390    0.8310    2.0340 hc        1 MOL      0.139919
      6 H3         10.5390    1.2250    0.4940 hc        1 MOL      0.139919
      7 N1          8.5180    0.2680   -0.7300 n         1 MOL     -0.283821
      8 C3          7.4130   -0.0950   -1.6120 c3        1 MOL     -0.188685
      9 C4          6.8360   -1.4960   -1.3540 c         1 MOL      0.445330
     10 O2          6.4590   -2.1060   -2.3860 o         1 MOL     -0.425338
     11 C5          7.9700    0.0850   -3.1290 c3        1 MOL     -0.226314
     12 C6          9.0230   -0.9700   -3.5580 c         1 MOL      0.676867
     13 O3          9.0370   -1.5100   -4.7250 o         1 MOL     -0.617653
     14 O4          9.9940   -1.1970   -2.8010 o         1 MOL     -0.617653
     15 H4          9.4270   -0.1030   -0.9810 hn        1 MOL      0.187047
     16 H5          6.6390    0.6740   -1.5300 h1        1 MOL      0.190296
     17 H6          8.3240    1.1080   -3.2670 hc        1 MOL      0.087665
     18 H7          7.1200   -0.0080   -3.8010 hc        1 MOL      0.087665
     19 N2          6.7490   -1.9850   -0.1480 n         1 MOL     -0.197814
     20 C7          6.2390   -3.2970    0.2060 c3        1 MOL     -0.055898
     21 C8          4.8560   -3.6020   -0.1600 c         1 MOL      0.505133
     22 O5          4.5430   -4.7190   -0.5620 o         1 MOL     -0.505571
     23 C9          6.4780   -3.6710    1.6460 c3        1 MOL     -0.005869
     24 C10         8.0230   -3.6060    1.9400 c3        1 MOL     -0.122831
     25 C11         8.3860   -3.7620    3.4030 c3        1 MOL      0.015283
     26 C12         9.7820   -3.2590    3.7030 c3        1 MOL      0.120340
     27 N3         10.1210   -3.2960    5.1280 n4        1 MOL     -0.321585
     28 H8          7.4660   -1.5880    0.4490 hn        1 MOL      0.207254
     29 H9          6.7790   -4.0570   -0.3640 h1        1 MOL      0.082630
     30 H10         6.1550   -4.6670    1.9560 hc        1 MOL      0.045637
     31 H11         5.9670   -2.9530    2.2810 hc        1 MOL      0.045637
     32 H12         8.4110   -2.6630    1.5560 hc        1 MOL      0.063824
     33 H13         8.5370   -4.3720    1.3520 hc        1 MOL      0.063824
     34 H14         8.2230   -4.7950    3.7190 hc        1 MOL      0.014627
     35 H15         7.6850   -3.1610    3.9900 hc        1 MOL      0.014627
     36 H16         9.9340   -2.2720    3.2650 hx        1 MOL      0.046655
     37 H17        10.4390   -3.8430    3.0630 hx        1 MOL      0.046655
     38 H18         9.5590   -2.6330    5.6390 hn        1 MOL      0.258436
     39 H19         9.9780   -4.1890    5.5760 hn        1 MOL      0.258436
     40 H20        11.0970   -3.0730    5.2390 hn        1 MOL      0.258436
     41 N4          3.8580   -2.6810    0.1270 n         1 MOL     -0.424194
     42 C13         3.8120   -1.4330    0.8740 c3        1 MOL      0.078592
     43 C14         4.0380   -0.2080   -0.0090 c         1 MOL      0.025924
     44 O6          4.1780   -0.3400   -1.2230 o         1 MOL     -0.336462
     45 C15         2.7600   -1.2640    2.0190 c3        1 MOL     -0.207907
     46 C16         1.3310   -1.7010    1.5230 c         1 MOL      0.717289
     47 O7          0.7200   -0.8880    0.7620 o         1 MOL     -0.679075
     48 O8          0.8280   -2.6540    2.1660 o         1 MOL     -0.679075
     49 H21         2.9560   -2.9820   -0.2140 hn        1 MOL      0.330233
     50 H22         4.7420   -1.3610    1.4310 h1        1 MOL      0.102399
     51 H23         2.6680   -0.2460    2.4110 hc        1 MOL      0.024568
     52 H24         2.9350   -1.9660    2.8360 hc        1 MOL      0.024568
     53 N5          4.0040    0.9810    0.5860 n         1 MOL     -0.252976
     54 C17         4.1020    2.3220   -0.1360 c3        1 MOL     -0.085496
     55 C18         2.7960    2.8100   -0.8310 c         1 MOL      0.244880
     56 O9          1.7340    2.2450   -0.5060 o         1 MOL     -0.250103
     57 H25         3.7190    0.8970    1.5490 hn        1 MOL      0.282895
     58 H26         4.8900    2.1690   -0.8700 h1        1 MOL      0.115717
     59 H27         4.3980    3.1610    0.4920 h1        1 MOL      0.115717
     60 N6          2.8790    3.7710   -1.7880 n         1 MOL     -0.287392
     61 C19         1.7630    4.4250   -2.5330 c3        1 MOL      0.209433
     62 C20         2.1380    5.9440   -2.6350 c         1 MOL      0.436011
     63 O10         3.2710    6.3590   -2.5440 o         1 MOL     -0.530150
     64 C21         1.3360    3.6930   -3.8450 c3        1 MOL     -0.315247
     65 C22         0.9740    2.2220   -3.6850 c         1 MOL      0.674182
     66 O11        -0.0690    1.9680   -3.0170 o         1 MOL     -0.657672
     67 O12         1.6870    1.2690   -4.1260 o         1 MOL     -0.657672
     68 H28         3.8010    4.1220   -1.9930 hn        1 MOL      0.253752
     69 H29         0.8920    4.3170   -1.8810 h1        1 MOL     -0.010598
     70 H30         2.1260    3.7810   -4.5920 hc        1 MOL      0.079778
     71 H31         0.4620    4.1440   -4.3250 hc        1 MOL      0.079778
     72 N7          1.1710    6.8330   -2.6430 n         1 MOL     -0.368338
     73 C23        -0.3040    6.6530   -2.5750 c3        1 MOL     -0.130857
     74 C24        -0.7490    6.2510   -1.1760 c         1 MOL      0.669596
     75 O13        -0.0620    6.5290   -0.2390 o         1 MOL     -0.519184
     76 H32         1.5570    7.7650   -2.6820 hn        1 MOL      0.296076
     77 H33        -0.5510    5.8440   -3.2560 h1        1 MOL      0.090432
     78 H34        -0.7380    7.5720   -2.9750 h1        1 MOL      0.090432
     79 N8         -1.9270    5.6010   -1.0920 n         1 MOL     -0.586879
     80 C25        -2.4080    5.1340    0.2250 c3        1 MOL      0.124137
     81 C26        -1.7140    3.8510    0.8490 c         1 MOL      0.957127
     82 O14        -1.3080    2.9350    0.0910 o         1 MOL     -0.903437
     83 C27        -3.9590    4.9230    0.1420 c3        1 MOL      0.411387
     84 C28        -4.4370    3.7310   -0.6760 c3        1 MOL     -0.216360
     85 O15        -4.7670    5.9250   -0.3290 oh        1 MOL     -0.658849
     86 H35        -2.5110    5.3970   -1.8850 hn        1 MOL      0.320085
     87 H36        -2.2370    5.9300    0.9460 h1        1 MOL      0.029499
     88 H37        -4.2760    4.6550    1.1510 h1        1 MOL     -0.120551
     89 H38        -5.6650    5.5960   -0.3520 ho        1 MOL      0.419552
     90 H39        -5.5120    3.5280   -0.7120 hc        1 MOL      0.039295
     91 H40        -4.0510    3.7980   -1.6850 hc        1 MOL      0.039295
     92 H41        -4.1570    2.7840   -0.2100 hc        1 MOL      0.039295
     93 N9         -1.6210    3.8000    2.1700 n         1 MOL     -0.816842
     94 C29        -0.9890    2.6760    2.9480 c3        1 MOL      0.268560
     95 C30        -1.6610    1.3020    2.6990 c         1 MOL      0.497473
     96 O16        -1.6490    0.7560    1.6260 o         1 MOL     -0.428860
     97 C31         0.5430    2.6510    2.8310 c3        1 MOL      0.261852
     98 C32         1.2470    4.0830    3.0410 c3        1 MOL      0.020291
     99 C33         1.0850    1.7390    3.9200 c3        1 MOL     -0.306920
    100 C34         0.6740    4.8370    4.2760 c3        1 MOL     -0.573273
    101 H42        -1.8740    4.6320    2.6810 hn        1 MOL      0.338520
    102 H43        -1.1940    2.9070    3.9950 h1        1 MOL      0.006182
    103 H44         0.7540    2.2640    1.8230 hc        1 MOL     -0.158785
    104 H45         1.1000    4.7630    2.2020 hc        1 MOL      0.057145
    105 H46         2.3300    3.9510    3.0430 hc        1 MOL      0.057145
    106 H47         0.7070    1.8820    4.9340 hc        1 MOL      0.077380
    107 H48         0.8030    0.7150    3.7050 hc        1 MOL      0.077380
    108 H49         2.1680    1.8230    3.8900 hc        1 MOL      0.077380
    109 H50         0.9760    4.5470    5.2820 hc        1 MOL      0.145046
    110 H51         1.3110    5.7150    4.3200 hc        1 MOL      0.145046
    111 H52        -0.3800    5.1150    4.2400 hc        1 MOL      0.145046
    112 N10        -2.2630    0.6570    3.7150 n         1 MOL     -0.334708
    113 C35        -2.8850   -0.7390    3.6980 c3        1 MOL     -0.523809
    114 C36        -4.1670   -0.9470    2.8570 c         1 MOL      0.543245
    115 O17        -4.6390   -2.0380    2.5080 o         1 MOL     -0.525494
    116 C37        -3.0990   -1.2980    5.1650 c3        1 MOL      0.606198
    117 C38        -4.2380   -0.5920    5.9020 c3        1 MOL     -0.361852
    118 O18        -1.8970   -1.1750    5.9110 oh        1 MOL     -0.648037
    119 H53        -2.3420    1.1710    4.5770 hn        1 MOL      0.242265
    120 H54        -2.1460   -1.3960    3.2420 h1        1 MOL      0.200667
    121 H55        -3.3650   -2.3650    5.1890 h1        1 MOL     -0.021926
    122 H56        -1.1980   -1.6010    5.4270 ho        1 MOL      0.411671
    123 H57        -4.3880   -1.1340    6.8420 hc        1 MOL      0.098651
    124 H58        -3.9720    0.4070    6.2720 hc        1 MOL      0.098651
    125 H59        -5.1390   -0.5860    5.2970 hc        1 MOL      0.098651
    126 N11        -4.7500    0.1470    2.3260 n         1 MOL     -0.139501
    127 C39        -6.0790    0.2060    1.7540 c3        1 MOL     -0.173505
    128 C40        -6.1670   -0.4360    0.4030 c         1 MOL      0.536450
    129 O19        -5.7730    0.1070   -0.6530 o         1 MOL     -0.506371
    130 C41        -6.4640    1.6610    1.7110 c3        1 MOL      0.366260
    131 C42        -7.7090    2.0110    0.7870 c3        1 MOL     -0.363684
    132 O20        -6.8070    2.0240    2.9960 oh        1 MOL     -0.598576
    133 H60        -4.3200    1.0500    2.4650 hn        1 MOL      0.117747
    134 H61        -6.8090   -0.2740    2.4090 h1        1 MOL      0.095227
    135 H62        -5.6560    2.3150    1.3930 h1        1 MOL      0.075033
    136 H63        -5.9890    2.3920    3.3260 ho        1 MOL      0.358741
    137 H64        -8.5560    1.3310    0.9270 hc        1 MOL      0.098561
    138 H65        -7.9930    3.0520    0.9420 hc        1 MOL      0.098561
    139 H66        -7.4950    1.8290   -0.2590 hc        1 MOL      0.098561
    140 N12        -6.4780   -1.7250    0.4800 n         1 MOL     -0.427951
    141 C43        -6.5800   -2.6790   -0.6550 c3        1 MOL      0.193903
    142 C44        -5.2590   -2.7890   -1.4180 c         1 MOL      0.590240
    143 O21        -5.0410   -2.2340   -2.4820 o         1 MOL     -0.544613
    144 C45        -7.6920   -2.2800   -1.6150 c3        1 MOL     -0.492369
    145 C46        -9.0490   -2.0280   -1.1080 c3        1 MOL      0.311252
    146 C47       -10.0930   -2.0370   -2.2530 c3        1 MOL     -0.028703
    147 C48       -11.5090   -1.5490   -1.9080 c3        1 MOL     -0.026406
    148 N13       -12.1910   -2.5110   -0.9910 n4        1 MOL     -0.213762
    149 H67        -6.8140   -2.0460    1.3750 hn        1 MOL      0.266545
    150 H68        -6.8000   -3.6900   -0.3130 h1        1 MOL      0.047656
    151 H69        -7.7570   -3.0960   -2.3250 hc        1 MOL      0.134638
    152 H70        -7.5710   -1.3700   -2.2060 hc        1 MOL      0.134638
    153 H71        -9.1200   -1.1130   -0.5140 hc        1 MOL     -0.069799
    154 H72        -9.2970   -2.8290   -0.4060 hc        1 MOL     -0.069799
    155 H73       -10.1190   -3.0450   -2.6740 hc        1 MOL      0.046362
    156 H74        -9.7500   -1.3540   -3.0460 hc        1 MOL      0.046362
    157 H75       -12.0870   -1.3590   -2.8110 hx        1 MOL      0.088418
    158 H76       -11.3930   -0.5880   -1.4000 hx        1 MOL      0.088418
    159 H77       -11.5840   -3.0030   -0.3450 hn        1 MOL      0.212903
    160 H78       -12.9780   -2.1080   -0.4860 hn        1 MOL      0.212903
    161 H79       -12.7000   -3.2130   -1.4940 hn        1 MOL      0.212903
    162 N14        -4.3640   -3.5630   -0.7970 n         1 MOL     -0.545712
    163 C49        -2.9540   -3.6560   -1.1920 c3        1 MOL      0.291185
    164 C50        -2.0300   -3.1150   -0.1350 c         1 MOL      0.404250
    165 O22        -1.5640   -2.0510   -0.3350 o         1 MOL     -0.563326
    166 C51        -2.6200   -5.0370   -1.7460 c3        1 MOL     -0.125520
    167 C52        -3.4020   -5.2710   -3.0770 c3        1 MOL     -0.217942
    168 C53        -3.2070   -6.7060   -3.5710 c         1 MOL      0.681215
    169 O23        -2.2600   -7.0500   -4.3320 o         1 MOL     -0.629357
    170 O24        -4.1210   -7.4760   -3.1840 o         1 MOL     -0.629357
    171 H80        -4.6900   -4.0800    0.0120 hn        1 MOL      0.284379
    172 H81        -2.8400   -3.0540   -2.0920 h1        1 MOL      0.096015
    173 H82        -2.9010   -5.8280   -1.0480 hc        1 MOL      0.070053
    174 H83        -1.5380   -5.0210   -1.8830 hc        1 MOL      0.070053
    175 H84        -3.0070   -4.5610   -3.8010 hc        1 MOL      0.045868
    176 H85        -4.4660   -5.0780   -2.9160 hc        1 MOL      0.045868
    177 N15        -1.7610   -3.7330    1.0120 n         1 MOL     -0.278277
    178 C54        -1.9890   -5.0960    1.4590 c3        1 MOL     -0.021962
    179 H86        -2.1760   -5.7350    0.5950 h1        1 MOL      0.030824
    180 H87        -1.1090   -5.4560    1.9920 h1        1 MOL      0.030824
    181 H88        -2.8520   -5.1220    2.1230 h1        1 MOL      0.030824
    182 H89        -1.2830   -3.0890    1.6330 hn        1 MOL      0.285652
    183 Ca1        -0.6240    0.6120   -0.8700 Ca        1 MOL      1.756313
    184 O25        -1.2400   -0.6420   -3.4340 oh        1 MOL     -0.871507
    185 H90        -0.9230    0.0250   -4.0430 ho        1 MOL      0.415569
    186 H91        -1.8370   -1.1710   -3.9520 ho        1 MOL      0.415569
    187 O26         1.5990   -0.5450   -2.0360 oh        1 MOL     -0.871507
    188 H92         1.7410   -0.0430   -2.8340 ho        1 MOL      0.415569
    189 H93         2.4770   -0.6530   -1.6600 ho        1 MOL      0.415569
    190 O27        -3.1110    0.7070   -1.6090 oh        1 MOL     -0.871507
    191 H94        -3.4650    1.0410   -2.4340 ho        1 MOL      0.415569
    192 H95        -3.8760    0.4600   -1.0990 ho        1 MOL      0.415569
@<TRIPOS>BOND
     1    1    2 1   
     2    1    4 1   
     3    1    5 1   
     4    1    6 1   
     5    2    3 2   
     6    2    7 1   
     7    7    8 1   
     8    7   15 1   
     9    8    9 1   
    10    8   11 1   
    11    8   16 1   
    12    9   10 2   
    13    9   19 1   
    14   11   12 1   
    15   11   17 1   
    16   11   18 1   
    17   12   13 1   
    18   12   14 1   
    19   19   20 1   
    20   19   28 1   
    21   20   21 1   
    22   20   23 1   
    23   20   29 1   
    24   21   22 2   
    25   21   41 1   
    26   23   24 1   
    27   23   30 1   
    28   23   31 1   
    29   24   25 1   
    30   24   32 1   
    31   24   33 1   
    32   25   26 1   
    33   25   34 1   
    34   25   35 1   
    35   26   27 1   
    36   26   36 1   
    37   26   37 1   
    38   27   38 1   
    39   27   39 1   
    40   27   40 1   
    41   41   42 1   
    42   41   49 1   
    43   42   43 1   
    44   42   45 1   
    45   42   50 1   
    46   43   44 2   
    47   43   53 1   
    48   45   46 1   
    49   45   51 1   
    50   45   52 1   
    51   46   47 1   
    52   46   48 1   
    53   53   54 1   
    54   53   57 1   
    55   54   55 1   
    56   54   58 1   
    57   54   59 1   
    58   55   56 2   
    59   55   60 1   
    60   60   61 1   
    61   60   68 1   
    62   61   62 1   
    63   61   64 1   
    64   61   69 1   
    65   62   63 2   
    66   62   72 1   
    67   64   65 1   
    68   64   70 1   
    69   64   71 1   
    70   65   66 1   
    71   65   67 1   
    72   72   73 1   
    73   72   76 1   
    74   73   74 1   
    75   73   77 1   
    76   73   78 1   
    77   74   75 2   
    78   74   79 1   
    79   79   80 1   
    80   79   86 1   
    81   80   81 1   
    82   80   83 1   
    83   80   87 1   
    84   81   82 2   
    85   81   93 1   
    86   83   84 1   
    87   83   85 1   
    88   83   88 1   
    89   84   90 1   
    90   84   91 1   
    91   84   92 1   
    92   85   89 1   
    93   93   94 1   
    94   93  101 1   
    95   94   95 1   
    96   94   97 1   
    97   94  102 1   
    98   95   96 2   
    99   95  112 1   
   100   97   98 1   
   101   97   99 1   
   102   97  103 1   
   103   98  100 1   
   104   98  104 1   
   105   98  105 1   
   106   99  106 1   
   107   99  107 1   
   108   99  108 1   
   109  100  109 1   
   110  100  110 1   
   111  100  111 1   
   112  112  113 1   
   113  112  119 1   
   114  113  114 1   
   115  113  116 1   
   116  113  120 1   
   117  114  115 2   
   118  114  126 1   
   119  116  117 1   
   120  116  118 1   
   121  116  121 1   
   122  117  123 1   
   123  117  124 1   
   124  117  125 1   
   125  118  122 1   
   126  126  127 1   
   127  126  133 1   
   128  127  128 1   
   129  127  130 1   
   130  127  134 1   
   131  128  129 2   
   132  128  140 1   
   133  130  131 1   
   134  130  132 1   
   135  130  135 1   
   136  131  137 1   
   137  131  138 1   
   138  131  139 1   
   139  132  136 1   
   140  140  141 1   
   141  140  149 1   
   142  141  142 1   
   143  141  144 1   
   144  141  150 1   
   145  142  143 2   
   146  142  162 1   
   147  144  145 1   
   148  144  151 1   
   149  144  152 1   
   150  145  146 1   
   151  145  153 1   
   152  145  154 1   
   153  146  147 1   
   154  146  155 1   
   155  146  156 1   
   156  147  148 1   
   157  147  157 1   
   158  147  158 1   
   159  148  159 1   
   160  148  160 1   
   161  148  161 1   
   162  162  163 1   
   163  162  171 1   
   164  163  164 1   
   165  163  166 1   
   166  163  172 1   
   167  164  165 2   
   168  164  177 1   
   169  166  167 1   
   170  166  173 1   
   171  166  174 1   
   172  167  168 1   
   173  167  175 1   
   174  167  176 1   
   175  168  169 1   
   176  168  170 1   
   177  177  178 1   
   178  177  182 1   
   179  178  179 1   
   180  178  180 1   
   181  178  181 1   
   182  184  185 1   
   183  184  186 1   
   184  187  188 1   
   185  187  189 1   
   186  190  191 1   
   187  190  192 1   
@<TRIPOS>SUBSTRUCTURE
     1 MOL         1 TEMP              0 ****  ****    0 ROOT
