@<TRIPOS>MOLECULE
MOL
  195   189     1     0     0
SMALL
resp


@<TRIPOS>ATOM
      1 C1          7.1280    0.8120    5.1470 c3        1 MOL     -0.323156
      2 C2          6.2320    0.7450    3.9090 c         1 MOL      0.868204
      3 O1          5.6660    1.7490    3.6050 o         1 MOL     -0.608936
      4 H1          8.0850    0.3360    4.9290 hc        1 MOL      0.073422
      5 H2          7.2950    1.8540    5.4200 hc        1 MOL      0.073422
      6 H3          6.6450    0.2910    5.9750 hc        1 MOL      0.073422
      7 N1          6.1990   -0.4460    3.2220 n         1 MOL     -0.706858
      8 C3          5.5730   -0.7450    1.8930 c3        1 MOL      0.431292
      9 C4          4.0370   -0.3730    1.8160 c         1 MOL     -0.133520
     10 O2          3.3980   -0.5670    0.8010 o         1 MOL     -0.011527
     11 C5          5.8280   -2.1820    1.4320 c3        1 MOL     -0.312324
     12 C6          7.3180   -2.5310    1.5280 c         1 MOL      0.743191
     13 O3          7.8420   -2.8360    2.6560 o         1 MOL     -0.680489
     14 O4          8.0190   -2.5310    0.5050 o         1 MOL     -0.680489
     15 H4          6.8700   -1.1310    3.5400 hn        1 MOL      0.304404
     16 H5          6.0880   -0.0500    1.2310 h1        1 MOL      0.057524
     17 H6          5.3680   -2.2360    0.4400 hc        1 MOL      0.009075
     18 H7          5.3320   -2.9230    2.0490 hc        1 MOL      0.009075
     19 N2          3.3720    0.0020    2.9010 n         1 MOL     -0.126119
     20 C7          1.8690    0.0080    2.8520 c3        1 MOL      0.147935
     21 C8          1.3650    1.5070    2.6760 c         1 MOL      0.354589
     22 O5          1.8180    2.4160    3.3510 o         1 MOL     -0.464869
     23 C9          1.3680   -0.5400    4.1150 c3        1 MOL     -0.332208
     24 C10         1.6770   -2.0340    4.3210 c3        1 MOL      0.170853
     25 C11         0.8850   -2.6180    5.5110 c3        1 MOL     -0.012706
     26 C12         1.1140   -4.1260    5.7350 c3        1 MOL      0.080290
     27 N3         -0.0560   -4.7540    6.3870 n4        1 MOL     -0.254825
     28 H8          3.8030    0.2350    3.7830 hn        1 MOL      0.226324
     29 H9          1.4750   -0.5740    2.0240 h1        1 MOL     -0.023658
     30 H10         0.2960   -0.3520    4.1330 hc        1 MOL      0.102874
     31 H11         1.8930   -0.0260    4.9280 hc        1 MOL      0.102874
     32 H12         2.7390   -2.0840    4.5830 hc        1 MOL     -0.023913
     33 H13         1.3820   -2.6870    3.5080 hc        1 MOL     -0.023913
     34 H14        -0.1610   -2.4170    5.3350 hc        1 MOL      0.024566
     35 H15         1.2100   -2.0670    6.3960 hc        1 MOL      0.024566
     36 H16         2.0020   -4.3080    6.3350 hx        1 MOL      0.054609
     37 H17         1.2470   -4.7210    4.8300 hx        1 MOL      0.054609
     38 H18        -0.8590   -4.8530    5.7790 hn        1 MOL      0.268750
     39 H19         0.1650   -5.7010    6.6440 hn        1 MOL      0.268750
     40 H20        -0.4080   -4.1970    7.1530 hn        1 MOL      0.268750
     41 N4          0.4550    1.8710    1.6990 n         1 MOL     -0.225006
     42 C13        -0.5940    1.0660    0.9970 c3        1 MOL      0.152086
     43 C14        -1.3020   -0.1350    1.7660 c         1 MOL      0.446650
     44 O6         -0.8070   -1.2280    1.8810 o         1 MOL     -0.488153
     45 C15         0.0100    0.6290   -0.3720 c3        1 MOL     -0.039836
     46 C16         0.4780    1.7510   -1.2880 c         1 MOL      0.630662
     47 O7          0.2520    2.9410   -1.0560 o         1 MOL     -0.735368
     48 O8          0.8330    1.4270   -2.4790 o         1 MOL     -0.735368
     49 H21         0.4290    2.8430    1.4120 hn        1 MOL      0.120172
     50 H22        -1.3370    1.8270    0.7390 h1        1 MOL     -0.027112
     51 H23        -0.7400   -0.0050   -0.8350 hc        1 MOL      0.024597
     52 H24         0.9180    0.1220   -0.0480 hc        1 MOL      0.024597
     53 N5         -2.4990   -0.0730    2.4140 n         1 MOL     -0.283029
     54 C17        -3.3220    1.0600    2.4410 c3        1 MOL     -0.127343
     55 C18        -4.4380    1.0460    3.4880 c         1 MOL      0.698604
     56 O9         -4.3410    0.2920    4.4310 o         1 MOL     -0.588429
     57 H25        -2.7660   -0.8360    3.0210 hn        1 MOL      0.265785
     58 H26        -3.6920    1.2480    1.4360 h1        1 MOL      0.039630
     59 H27        -2.6710    1.8850    2.7190 h1        1 MOL      0.039630
     60 N6         -5.4630    1.8950    3.4030 n         1 MOL     -0.565507
     61 C19        -5.6350    3.0270    2.4870 c3        1 MOL      0.190166
     62 C20        -6.3020    2.7780    1.1260 c         1 MOL      0.484325
     63 O10        -7.1890    1.9290    1.0020 o         1 MOL     -0.477134
     64 C21        -6.3230    4.1640    3.2860 c3        1 MOL     -0.197093
     65 C22        -7.5530    3.9020    4.0990 c         1 MOL      0.738525
     66 O11        -8.0230    4.7790    4.8340 o         1 MOL     -0.657626
     67 O12        -8.1040    2.7610    4.1600 o         1 MOL     -0.657626
     68 H28        -6.2330    1.5780    3.9770 hn        1 MOL      0.325946
     69 H29        -4.6940    3.5320    2.2810 h1        1 MOL     -0.011573
     70 H30        -6.5170    4.8560    2.4610 hc        1 MOL      0.018360
     71 H31        -5.5370    4.6790    3.8390 hc        1 MOL      0.018360
     72 N7         -5.9080    3.4840    0.0510 n         1 MOL     -0.272395
     73 C23        -6.6040    3.5610   -1.3020 c3        1 MOL     -0.190195
     74 C24        -6.4390    2.3100   -2.1710 c         1 MOL      0.436856
     75 O13        -7.2140    2.1000   -3.1730 o         1 MOL     -0.569312
     76 H32        -5.2210    4.2120    0.2070 hn        1 MOL      0.183232
     77 H33        -6.2120    4.3860   -1.8970 h1        1 MOL      0.125518
     78 H34        -7.6300    3.8440   -1.0570 h1        1 MOL      0.125518
     79 N8         -5.5870    1.4260   -1.7710 n         1 MOL     -0.137775
     80 C25        -5.2850    0.0560   -2.2940 c3        1 MOL      0.008105
     81 C26        -5.3480   -0.9470   -1.1940 c         1 MOL      0.477158
     82 O14        -4.9090   -0.6600   -0.0530 o         1 MOL     -0.480218
     83 C27        -3.9320    0.1340   -2.9640 c3        1 MOL      0.459991
     84 C28        -3.7630    1.2590   -4.0750 c3        1 MOL     -0.230381
     85 O15        -3.5610   -1.1450   -3.5440 oh        1 MOL     -0.642041
     86 H35        -5.0200    1.6740   -0.9650 hn        1 MOL      0.070089
     87 H36        -5.9640   -0.2380   -3.1070 h1        1 MOL      0.079045
     88 H37        -3.2360    0.3650   -2.1590 h1        1 MOL     -0.022067
     89 H38        -2.7820   -1.4740   -3.1060 ho        1 MOL      0.339079
     90 H39        -3.8230    2.2800   -3.7000 hc        1 MOL      0.048078
     91 H40        -2.7970    1.3170   -4.5670 hc        1 MOL      0.048078
     92 H41        -4.5210    1.1040   -4.8390 hc        1 MOL      0.048078
     93 N9         -5.6940   -2.1930   -1.5220 n         1 MOL     -0.487747
     94 C29        -5.6260   -3.3080   -0.5610 c3        1 MOL      0.036533
     95 C30        -4.2290   -3.9550   -0.4000 c         1 MOL      0.326964
     96 O16        -3.7760   -4.2310    0.7200 o         1 MOL     -0.518284
     97 C31        -6.6540   -4.4160   -0.7880 c3        1 MOL      0.132666
     98 C32        -8.1160   -3.7870   -0.9390 c3        1 MOL     -0.010516
     99 C33        -6.5980   -5.5510    0.2220 c3        1 MOL     -0.112584
    100 C34        -9.2790   -4.7980   -1.1740 c3        1 MOL     -0.317870
    101 H42        -5.9990   -2.3530   -2.4700 hn        1 MOL      0.297771
    102 H43        -5.8680   -2.8510    0.3920 h1        1 MOL      0.110691
    103 H44        -6.2870   -4.8360   -1.7190 hc        1 MOL     -0.031460
    104 H45        -8.1220   -2.9300   -1.6100 hc        1 MOL      0.037558
    105 H46        -8.2890   -3.3520    0.0400 hc        1 MOL      0.037558
    106 H47        -6.5080   -5.0850    1.1970 hc        1 MOL      0.030776
    107 H48        -7.3900   -6.3010    0.1910 hc        1 MOL      0.030776
    108 H49        -5.6850   -6.1270    0.0370 hc        1 MOL      0.030776
    109 H50        -9.2850   -5.5020   -0.3460 hc        1 MOL      0.086590
    110 H51       -10.2170   -4.2600   -1.0100 hc        1 MOL      0.086590
    111 H52        -9.3900   -5.2580   -2.1530 hc        1 MOL      0.086590
    112 N10        -3.5260   -4.0190   -1.4960 n         1 MOL     -0.097470
    113 C35        -2.1840   -4.7230   -1.6840 c3        1 MOL     -0.048077
    114 C36        -1.1060   -3.6440   -1.6650 c         1 MOL      0.455253
    115 O17        -1.2610   -2.5050   -2.1210 o         1 MOL     -0.411819
    116 C37        -2.2490   -5.7060   -2.9300 c3        1 MOL      0.322603
    117 C38        -2.6700   -5.0540   -4.2350 c3        1 MOL     -0.281912
    118 O18        -3.2000   -6.6310   -2.6180 oh        1 MOL     -0.602269
    119 H53        -3.9520   -3.6580   -2.3340 hn        1 MOL      0.153731
    120 H54        -2.0720   -5.3970   -0.8330 h1        1 MOL      0.068410
    121 H55        -1.3140   -6.2380   -3.0750 h1        1 MOL      0.002816
    122 H56        -2.8340   -7.3420   -2.0880 ho        1 MOL      0.391061
    123 H57        -3.6400   -4.5670   -4.2380 hc        1 MOL      0.089622
    124 H58        -1.8910   -4.3630   -4.5580 hc        1 MOL      0.089622
    125 H59        -2.8420   -5.7510   -5.0610 hc        1 MOL      0.089622
    126 N11         0.0610   -3.9540   -1.0520 n         1 MOL     -0.458279
    127 C39         1.1580   -2.9530   -0.7250 c3        1 MOL      0.016714
    128 C40         1.8160   -2.2960   -2.0090 c         1 MOL      0.218695
    129 O19         1.6810   -2.8000   -3.0930 o         1 MOL     -0.466737
    130 C41         2.1820   -3.6590    0.1850 c3        1 MOL      0.231140
    131 C42         3.0050   -4.7190   -0.5630 c3        1 MOL     -0.250441
    132 O20         1.4960   -4.2510    1.2510 oh        1 MOL     -0.549104
    133 H60         0.1570   -4.9080   -0.7530 hn        1 MOL      0.280879
    134 H61         0.7530   -2.1320   -0.1230 h1        1 MOL      0.136275
    135 H62         2.8510   -2.9360    0.6610 h1        1 MOL      0.086066
    136 H63         2.2290   -4.5640    1.7960 ho        1 MOL      0.340570
    137 H64         3.6310   -5.3130    0.1140 hc        1 MOL      0.063850
    138 H65         2.4270   -5.4860   -1.0770 hc        1 MOL      0.063850
    139 H66         3.6690   -4.2720   -1.3020 hc        1 MOL      0.063850
    140 N12         2.6870   -1.3130   -1.8280 n         1 MOL      0.169615
    141 C43         3.4800   -0.7290   -2.8910 c3        1 MOL     -0.160733
    142 C44         4.0480    0.6020   -2.4610 c         1 MOL      0.528704
    143 O21         4.7920    1.1000   -3.3060 o         1 MOL     -0.587435
    144 C45         4.5150   -1.7400   -3.4930 c3        1 MOL     -0.177306
    145 C46         5.7720   -2.1920   -2.7670 c3        1 MOL      0.362435
    146 C47         6.5430   -3.1800   -3.5670 c3        1 MOL     -0.039456
    147 C48         8.0120   -3.4510   -3.0000 c3        1 MOL     -0.063589
    148 N13         8.0130   -4.1150   -1.6830 n4        1 MOL     -0.337303
    149 H67         2.9400   -1.0410   -0.8840 hn        1 MOL     -0.067772
    150 H68         2.7260   -0.4740   -3.6410 h1        1 MOL      0.139094
    151 H69         4.8590   -1.3340   -4.4450 hc        1 MOL      0.058259
    152 H70         3.9990   -2.6590   -3.7550 hc        1 MOL      0.058259
    153 H71         5.3440   -2.6730   -1.8830 hc        1 MOL     -0.067668
    154 H72         6.3640   -1.3020   -2.5410 hc        1 MOL     -0.067668
    155 H73         6.5530   -2.7910   -4.5810 hc        1 MOL      0.003799
    156 H74         6.1100   -4.1820   -3.5760 hc        1 MOL      0.003799
    157 H75         8.5320   -2.4930   -2.9230 hx        1 MOL      0.104212
    158 H76         8.5220   -4.0410   -3.7690 hx        1 MOL      0.104212
    159 H77         7.9440   -3.5590   -0.8440 hn        1 MOL      0.300064
    160 H78         7.2800   -4.8130   -1.6100 hn        1 MOL      0.300064
    161 H79         8.9610   -4.4520   -1.5760 hn        1 MOL      0.300064
    162 N14         3.8500    1.2030   -1.2680 n         1 MOL     -0.096114
    163 C49         4.3850    2.5290   -1.0010 c3        1 MOL     -0.253956
    164 C50         5.9280    2.6270   -0.9520 c         1 MOL      0.396916
    165 O22         6.6270    1.8280   -0.2580 o         1 MOL     -0.497064
    166 C51         3.8230    3.0540    0.3620 c3        1 MOL      0.287789
    167 C52         3.9200    4.5780    0.7030 c3        1 MOL     -0.580579
    168 C53         3.6270    5.5000   -0.4500 c         1 MOL      0.685402
    169 O23         4.5150    6.1820   -1.0030 o         1 MOL     -0.711257
    170 O24         2.4420    5.6170   -0.8460 o         1 MOL     -0.711257
    171 H80         3.5130    0.6430   -0.4950 hn        1 MOL      0.009210
    172 H81         4.0190    3.2480   -1.7360 h1        1 MOL      0.103206
    173 H82         4.2160    2.4250    1.1640 hc        1 MOL     -0.007453
    174 H83         2.7670    2.8250    0.3070 hc        1 MOL     -0.007453
    175 H84         4.9430    4.8130    1.0080 hc        1 MOL      0.173776
    176 H85         3.3020    4.9290    1.5340 hc        1 MOL      0.173776
    177 N15         6.5390    3.6710   -1.5160 n         1 MOL     -0.120058
    178 C54         7.9620    3.9560   -1.5800 c3        1 MOL     -0.227507
    179 H86         8.5040    3.0440   -1.8270 h1        1 MOL      0.098785
    180 H87         8.1480    4.7080   -2.3470 h1        1 MOL      0.098785
    181 H88         8.3020    4.3300   -0.6140 h1        1 MOL      0.098785
    182 H89         5.9290    4.1220   -2.1710 hn        1 MOL      0.272634
    183 Ca1        -0.0190    5.3750   -1.3380 Ca        1 MOL      1.704466
    184 O25         0.4880    7.2730   -3.4260 oh        1 MOL     -0.857960
    185 H90         0.0320    7.9150   -3.9620 ho        1 MOL      0.430659
    186 H91         1.4140    7.4180   -3.6110 ho        1 MOL      0.430659
    187 O26         1.4350    4.2350   -3.4400 oh        1 MOL     -0.857960
    188 H92         2.3050    4.2440   -3.8180 ho        1 MOL      0.430659
    189 H93         1.2750    3.3090   -3.2220 ho        1 MOL      0.430659
    190 O27        -2.4160    6.2840   -2.5560 oh        1 MOL     -0.857960
    191 H94        -2.5330    7.0230   -3.1650 ho        1 MOL      0.430659
    192 H95        -3.2570    6.2030   -2.1060 ho        1 MOL      0.430659
    193 O28        -1.3610    3.5660   -3.0800 oh        1 MOL     -0.857960
    194 H96        -1.7980    3.4800   -3.9300 ho        1 MOL      0.430659
    195 H97        -0.6920    2.8800   -3.0810 ho        1 MOL      0.430659
@<TRIPOS>BOND
     1    1    2 1   
     2    1    4 1   
     3    1    5 1   
     4    1    6 1   
     5    2    3 2   
     6    2    7 1   
     7    7    8 1   
     8    7   15 1   
     9    8    9 1   
    10    8   11 1   
    11    8   16 1   
    12    9   10 2   
    13    9   19 1   
    14   11   12 1   
    15   11   17 1   
    16   11   18 1   
    17   12   13 1   
    18   12   14 1   
    19   19   20 1   
    20   19   28 1   
    21   20   21 1   
    22   20   23 1   
    23   20   29 1   
    24   21   22 2   
    25   21   41 1   
    26   23   24 1   
    27   23   30 1   
    28   23   31 1   
    29   24   25 1   
    30   24   32 1   
    31   24   33 1   
    32   25   26 1   
    33   25   34 1   
    34   25   35 1   
    35   26   27 1   
    36   26   36 1   
    37   26   37 1   
    38   27   38 1   
    39   27   39 1   
    40   27   40 1   
    41   41   42 1   
    42   41   49 1   
    43   42   43 1   
    44   42   45 1   
    45   42   50 1   
    46   43   44 2   
    47   43   53 1   
    48   45   46 1   
    49   45   51 1   
    50   45   52 1   
    51   46   47 1   
    52   46   48 1   
    53   53   54 1   
    54   53   57 1   
    55   54   55 1   
    56   54   58 1   
    57   54   59 1   
    58   55   56 2   
    59   55   60 1   
    60   60   61 1   
    61   60   68 1   
    62   61   62 1   
    63   61   64 1   
    64   61   69 1   
    65   62   63 2   
    66   62   72 1   
    67   64   65 1   
    68   64   70 1   
    69   64   71 1   
    70   65   66 1   
    71   65   67 1   
    72   72   73 1   
    73   72   76 1   
    74   73   74 1   
    75   73   77 1   
    76   73   78 1   
    77   74   75 2   
    78   74   79 1   
    79   79   80 1   
    80   79   86 1   
    81   80   81 1   
    82   80   83 1   
    83   80   87 1   
    84   81   82 2   
    85   81   93 1   
    86   83   84 1   
    87   83   85 1   
    88   83   88 1   
    89   84   90 1   
    90   84   91 1   
    91   84   92 1   
    92   85   89 1   
    93   93   94 1   
    94   93  101 1   
    95   94   95 1   
    96   94   97 1   
    97   94  102 1   
    98   95   96 2   
    99   95  112 1   
   100   97   98 1   
   101   97   99 1   
   102   97  103 1   
   103   98  100 1   
   104   98  104 1   
   105   98  105 1   
   106   99  106 1   
   107   99  107 1   
   108   99  108 1   
   109  100  109 1   
   110  100  110 1   
   111  100  111 1   
   112  112  113 1   
   113  112  119 1   
   114  113  114 1   
   115  113  116 1   
   116  113  120 1   
   117  114  115 2   
   118  114  126 1   
   119  116  117 1   
   120  116  118 1   
   121  116  121 1   
   122  117  123 1   
   123  117  124 1   
   124  117  125 1   
   125  118  122 1   
   126  126  127 1   
   127  126  133 1   
   128  127  128 1   
   129  127  130 1   
   130  127  134 1   
   131  128  129 2   
   132  128  140 1   
   133  130  131 1   
   134  130  132 1   
   135  130  135 1   
   136  131  137 1   
   137  131  138 1   
   138  131  139 1   
   139  132  136 1   
   140  140  141 1   
   141  140  149 1   
   142  141  142 1   
   143  141  144 1   
   144  141  150 1   
   145  142  143 2   
   146  142  162 1   
   147  144  145 1   
   148  144  151 1   
   149  144  152 1   
   150  145  146 1   
   151  145  153 1   
   152  145  154 1   
   153  146  147 1   
   154  146  155 1   
   155  146  156 1   
   156  147  148 1   
   157  147  157 1   
   158  147  158 1   
   159  148  159 1   
   160  148  160 1   
   161  148  161 1   
   162  162  163 1   
   163  162  171 1   
   164  163  164 1   
   165  163  166 1   
   166  163  172 1   
   167  164  165 2   
   168  164  177 1   
   169  166  167 1   
   170  166  173 1   
   171  166  174 1   
   172  167  168 1   
   173  167  175 1   
   174  167  176 1   
   175  168  169 1   
   176  168  170 1   
   177  177  178 1   
   178  177  182 1   
   179  178  179 1   
   180  178  180 1   
   181  178  181 1   
   182  184  185 1   
   183  184  186 1   
   184  187  188 1   
   185  187  189 1   
   186  190  191 1   
   187  190  192 1   
   188  193  194 1   
   189  193  195 1   
@<TRIPOS>SUBSTRUCTURE
     1 MOL         1 TEMP              0 ****  ****    0 ROOT
