@<TRIPOS>MOLECULE
MOL
  192   187     1     0     0
SMALL
resp


@<TRIPOS>ATOM
      1 C1         -4.0730   -5.1640    4.2320 c3        1 MOL     -0.265903
      2 C2         -4.0400   -4.0250    3.1210 c         1 MOL      0.679658
      3 O1         -3.7540   -4.2450    1.9500 o         1 MOL     -0.576377
      4 H1         -3.7800   -4.7410    5.1930 hc        1 MOL      0.066399
      5 H2         -5.0810   -5.5710    4.3070 hc        1 MOL      0.066399
      6 H3         -3.3790   -5.9590    3.9580 hc        1 MOL      0.066399
      7 N1         -4.4310   -2.8000    3.5500 n         1 MOL     -0.468330
      8 C3         -4.4580   -1.6330    2.6630 c3        1 MOL      0.134559
      9 C4         -3.0330   -1.2730    2.2050 c         1 MOL      0.297733
     10 O2         -2.8910   -0.6270    1.1510 o         1 MOL     -0.290695
     11 C5         -5.1140   -0.4110    3.3580 c3        1 MOL     -0.135773
     12 C6         -4.8460   -0.2380    4.8620 c         1 MOL      0.686390
     13 O3         -4.1950    0.7400    5.2010 o         1 MOL     -0.703118
     14 O4         -5.2810   -1.1400    5.6280 o         1 MOL     -0.703118
     15 H4         -4.6970   -2.7360    4.5190 hn        1 MOL      0.259636
     16 H5         -4.9850   -1.9240    1.7550 h1        1 MOL      0.034185
     17 H6         -6.1910   -0.5060    3.2390 hc        1 MOL      0.023276
     18 H7         -4.9800    0.4960    2.7620 hc        1 MOL      0.023276
     19 N2         -1.9780   -1.6300    2.9960 n         1 MOL     -0.398740
     20 C7         -0.6290   -1.4520    2.5240 c3        1 MOL     -0.024960
     21 C8         -0.3710   -2.5800    1.4860 c         1 MOL      0.470778
     22 O5         -0.6310   -3.7290    1.8310 o         1 MOL     -0.513372
     23 C9          0.2950   -1.5380    3.8070 c3        1 MOL      0.047758
     24 C10         0.2650   -0.2680    4.6840 c3        1 MOL     -0.059647
     25 C11         1.2630   -0.4990    5.8460 c3        1 MOL     -0.182455
     26 C12         1.6450    0.8260    6.6060 c3        1 MOL     -0.103714
     27 N3          2.2240    1.8850    5.7230 n4        1 MOL     -0.338719
     28 H8         -2.2080   -2.1490    3.8340 hn        1 MOL      0.296525
     29 H9         -0.5710   -0.4940    2.0070 h1        1 MOL      0.182618
     30 H10         1.3410   -1.6740    3.5330 hc        1 MOL      0.032194
     31 H11        -0.0620   -2.3670    4.4190 hc        1 MOL      0.032194
     32 H12        -0.7260   -0.2220    5.1200 hc        1 MOL      0.055686
     33 H13         0.5770    0.6490    4.1850 hc        1 MOL      0.055686
     34 H14         2.1470   -1.1010    5.6610 hc        1 MOL      0.105591
     35 H15         0.7590   -1.1580    6.5520 hc        1 MOL      0.105591
     36 H16         2.2810    0.6430    7.4740 hx        1 MOL      0.127755
     37 H17         0.7140    1.1560    7.0680 hx        1 MOL      0.127755
     38 H18         2.4000    2.7440    6.2200 hn        1 MOL      0.328057
     39 H19         3.0160    1.4880    5.2320 hn        1 MOL      0.328057
     40 H20         1.5630    2.1580    5.0090 hn        1 MOL      0.328057
     41 N4          0.3280   -2.4790    0.3500 n         1 MOL     -0.261465
     42 C13         0.8770   -1.2890   -0.3450 c3        1 MOL     -0.316277
     43 C14         1.5500   -0.3780    0.7040 c         1 MOL     -0.024300
     44 O6          1.1700    0.7540    0.9270 o         1 MOL     -0.339274
     45 C15        -0.0990   -0.5260   -1.3200 c3        1 MOL      0.228487
     46 C16        -0.5800   -1.3950   -2.4650 c         1 MOL      0.407036
     47 O7         -0.0560   -2.4850   -2.6790 o         1 MOL     -0.685295
     48 O8         -1.4910   -1.0180   -3.1670 o         1 MOL     -0.685295
     49 H21         0.3960   -3.3140   -0.2060 hn        1 MOL      0.286283
     50 H22         1.5980   -1.7670   -1.0140 h1        1 MOL      0.084904
     51 H23         0.3650    0.3330   -1.8090 hc        1 MOL      0.075303
     52 H24        -0.9740   -0.1510   -0.7900 hc        1 MOL      0.075303
     53 N5          2.7460   -0.7520    1.2920 n         1 MOL     -0.028177
     54 C17         3.6980   -1.7280    0.7920 c3        1 MOL     -0.204789
     55 C18         4.3030   -2.3900    2.1030 c         1 MOL      0.462495
     56 O9          3.8830   -2.0950    3.2310 o         1 MOL     -0.526649
     57 H25         3.0320   -0.1040    2.0140 hn        1 MOL      0.245214
     58 H26         4.5470   -1.3060    0.2620 h1        1 MOL      0.174500
     59 H27         3.1420   -2.4200    0.1560 h1        1 MOL      0.174500
     60 N6          5.3490   -3.2700    1.9790 n         1 MOL     -0.415229
     61 C19         5.9120   -3.7200    0.6840 c3        1 MOL      0.043091
     62 C20         6.9100   -2.7140    0.2480 c         1 MOL      0.417969
     63 O10         7.5470   -1.9350    0.9740 o         1 MOL     -0.464506
     64 C21         6.3930   -5.2210    0.5670 c3        1 MOL     -0.135417
     65 C22         7.5460   -5.5470    1.4920 c         1 MOL      0.723929
     66 O11         7.6310   -6.6930    1.8540 o         1 MOL     -0.671626
     67 O12         8.3580   -4.6420    1.8320 o         1 MOL     -0.671626
     68 H28         5.7820   -3.6970    2.7850 hn        1 MOL      0.332393
     69 H29         5.0900   -3.6390   -0.0250 h1        1 MOL     -0.020670
     70 H30         6.6510   -5.4760   -0.4630 hc        1 MOL      0.017432
     71 H31         5.5710   -5.8300    0.9310 hc        1 MOL      0.017432
     72 N7          7.0450   -2.6180   -1.1010 n         1 MOL     -0.176436
     73 C23         8.0280   -1.7810   -1.7530 c3        1 MOL     -0.341415
     74 C24         7.5570   -0.3410   -2.0300 c         1 MOL      0.551302
     75 O13         8.3190    0.4600   -2.5800 o         1 MOL     -0.547102
     76 H32         6.4690   -3.1940   -1.6880 hn        1 MOL      0.232645
     77 H33         8.1670   -2.2200   -2.7490 h1        1 MOL      0.160576
     78 H34         8.9780   -1.6550   -1.2400 h1        1 MOL      0.160576
     79 N8          6.2870    0.0090   -1.7040 n         1 MOL     -0.178400
     80 C25         5.7140    1.3710   -1.8440 c3        1 MOL     -0.023530
     81 C26         5.1520    1.9620   -0.5210 c         1 MOL      0.476075
     82 O14         4.9310    1.2400    0.3820 o         1 MOL     -0.488526
     83 C27         4.5040    1.4550   -2.8850 c3        1 MOL      0.186678
     84 C28         3.3110    0.6100   -2.5880 c3        1 MOL     -0.229572
     85 O15         4.8830    1.0200   -4.1290 oh        1 MOL     -0.569046
     86 H35         5.6760   -0.6730   -1.2870 hn        1 MOL      0.052474
     87 H36         6.4940    2.0410   -2.2010 h1        1 MOL      0.063380
     88 H37         4.1520    2.4850   -2.9250 h1        1 MOL      0.017560
     89 H38         5.1060    1.8390   -4.5740 ho        1 MOL      0.376798
     90 H39         2.8840    0.8960   -1.6280 hc        1 MOL      0.094946
     91 H40         2.5440    0.7520   -3.3420 hc        1 MOL      0.094946
     92 H41         3.6070   -0.4280   -2.4810 hc        1 MOL      0.094946
     93 N9          4.7780    3.2110   -0.5770 n         1 MOL     -0.309366
     94 C29         3.9780    3.8980    0.4550 c3        1 MOL     -0.297269
     95 C30         2.6510    4.5160    0.0050 c         1 MOL      0.556035
     96 O16         1.9540    5.0840    0.8110 o         1 MOL     -0.521734
     97 C31         4.8440    4.8110    1.3440 c3        1 MOL      0.169919
     98 C32         5.4740    6.0500    0.6050 c3        1 MOL      0.113173
     99 C33         5.9090    3.9430    2.0560 c3        1 MOL     -0.335064
    100 C34         6.3350    6.9780    1.4620 c3        1 MOL     -0.204983
    101 H42         5.0500    3.8530   -1.3130 hn        1 MOL      0.245909
    102 H43         3.6750    3.1170    1.1520 h1        1 MOL      0.143550
    103 H44         4.2150    5.3260    2.0650 hc        1 MOL      0.011853
    104 H45         4.6140    6.6880    0.4190 hc        1 MOL     -0.008918
    105 H46         5.9060    5.6970   -0.3260 hc        1 MOL     -0.008918
    106 H47         6.5810    4.5890    2.6240 hc        1 MOL      0.094168
    107 H48         5.3590    3.2840    2.7380 hc        1 MOL      0.094168
    108 H49         6.5520    3.4110    1.3550 hc        1 MOL      0.094168
    109 H50         7.2930    6.5290    1.7360 hc        1 MOL      0.051094
    110 H51         6.6660    7.7560    0.7770 hc        1 MOL      0.051094
    111 H52         5.8670    7.4590    2.3170 hc        1 MOL      0.051094
    112 N10         2.2180    4.2070   -1.2160 n         1 MOL     -0.284545
    113 C35         0.8880    4.5950   -1.7000 c3        1 MOL      0.037416
    114 C36        -0.1980    3.6230   -1.2350 c         1 MOL      0.478024
    115 O17        -0.7230    2.8200   -2.0280 o         1 MOL     -0.490671
    116 C37         0.9040    4.9670   -3.1910 c3        1 MOL      0.280959
    117 C38         1.3080    3.8280   -4.1520 c3        1 MOL     -0.366941
    118 O18         1.7450    6.0790   -3.4810 oh        1 MOL     -0.661877
    119 H53         2.6370    3.4430   -1.7330 hn        1 MOL      0.182072
    120 H54         0.5970    5.5380   -1.2450 h1        1 MOL      0.087869
    121 H55        -0.0970    5.2920   -3.4550 h1        1 MOL      0.034813
    122 H56         1.5840    6.3520   -4.3910 ho        1 MOL      0.423016
    123 H57         0.9210    3.9710   -5.1610 hc        1 MOL      0.088242
    124 H58         2.4020    3.8260   -4.1400 hc        1 MOL      0.088242
    125 H59         0.9810    2.8590   -3.7790 hc        1 MOL      0.088242
    126 N11        -0.5260    3.5770    0.0760 n         1 MOL     -0.544075
    127 C39        -1.5220    2.6350    0.6710 c3        1 MOL     -0.014074
    128 C40        -2.8810    2.9180    0.1350 c         1 MOL      0.624204
    129 O19        -3.1770    4.0200   -0.3000 o         1 MOL     -0.590894
    130 C41        -1.3980    2.5680    2.1890 c3        1 MOL      0.633953
    131 C42        -1.9020    3.9280    2.6540 c3        1 MOL     -0.500960
    132 O20        -0.0290    2.3120    2.4680 oh        1 MOL     -0.740765
    133 H60         0.0160    4.1690    0.6900 hn        1 MOL      0.323269
    134 H61        -1.1840    1.6820    0.2580 h1        1 MOL     -0.014729
    135 H62        -2.0420    1.8000    2.6280 h1        1 MOL     -0.085401
    136 H63         0.3510    1.6560    1.8850 ho        1 MOL      0.391191
    137 H64        -1.2370    4.7260    2.3390 hc        1 MOL      0.122113
    138 H65        -2.8920    4.1340    2.2470 hc        1 MOL      0.122113
    139 H66        -2.1400    3.8820    3.7250 hc        1 MOL      0.122113
    140 N12        -3.7000    1.8750    0.1540 n         1 MOL     -0.448297
    141 C43        -5.0880    1.8380   -0.4250 c3        1 MOL      0.087136
    142 C44        -5.4400    0.5640   -1.1530 c         1 MOL      0.512621
    143 O21        -6.4320    0.5920   -1.9210 o         1 MOL     -0.671677
    144 C45        -6.1690    2.1280    0.6140 c3        1 MOL     -0.060259
    145 C46        -7.3170    2.9830   -0.0080 c3        1 MOL     -0.008554
    146 C47        -6.9490    4.5160    0.0580 c3        1 MOL     -0.187868
    147 C48        -8.2200    5.3840   -0.3120 c3        1 MOL      0.037884
    148 N13        -7.9580    6.8960   -0.3180 n4        1 MOL     -0.205526
    149 H67        -3.3220    1.0030    0.5060 hn        1 MOL      0.135059
    150 H68        -5.1470    2.6040   -1.2000 h1        1 MOL      0.082381
    151 H69        -5.6940    2.5070    1.5170 hc        1 MOL      0.049109
    152 H70        -6.5320    1.1280    0.8690 hc        1 MOL      0.049109
    153 H71        -8.1870    2.7300    0.5930 hc        1 MOL      0.047713
    154 H72        -7.6050    2.6540   -1.0030 hc        1 MOL      0.047713
    155 H73        -6.1550    4.7190   -0.6680 hc        1 MOL      0.090369
    156 H74        -6.5240    4.7650    1.0210 hc        1 MOL      0.090369
    157 H75        -8.9400    5.3040    0.5030 hx        1 MOL      0.078690
    158 H76        -8.7460    5.0800   -1.2170 hx        1 MOL      0.078690
    159 H77        -7.4360    7.2240    0.4770 hn        1 MOL      0.258446
    160 H78        -7.2940    7.1920   -1.0250 hn        1 MOL      0.258446
    161 H79        -8.7200    7.5190   -0.5540 hn        1 MOL      0.258446
    162 N14        -4.7370   -0.5320   -0.9970 n         1 MOL     -0.234602
    163 C49        -5.2480   -1.7860   -1.6570 c3        1 MOL      0.080073
    164 C50        -6.5270   -2.2960   -0.9740 c         1 MOL      0.400505
    165 O22        -6.5720   -2.6280    0.2230 o         1 MOL     -0.469359
    166 C51        -4.0980   -2.7750   -1.4700 c3        1 MOL     -0.247668
    167 C52        -4.4000   -4.2100   -1.9870 c3        1 MOL     -0.071456
    168 C53        -4.3020   -4.4110   -3.4480 c         1 MOL      0.468776
    169 O23        -3.3670   -3.8430   -4.0930 o         1 MOL     -0.658173
    170 O24        -5.1160   -5.1290   -4.0370 o         1 MOL     -0.658173
    171 H80        -3.9170   -0.6070   -0.4130 hn        1 MOL      0.162690
    172 H81        -5.3840   -1.5670   -2.7160 h1        1 MOL      0.123204
    173 H82        -3.9040   -2.9550   -0.4180 hc        1 MOL      0.106145
    174 H83        -3.1530   -2.5030   -1.9160 hc        1 MOL      0.106145
    175 H84        -5.3680   -4.5180   -1.5700 hc        1 MOL      0.076969
    176 H85        -3.6300   -4.8530   -1.5780 hc        1 MOL      0.076969
    177 N15        -7.5860   -2.4070   -1.7990 n         1 MOL     -0.168924
    178 C54        -8.8280   -2.9120   -1.3520 c3        1 MOL     -0.139451
    179 H86        -9.3530   -3.3770   -2.1870 h1        1 MOL      0.068938
    180 H87        -8.6600   -3.6540   -0.5710 h1        1 MOL      0.068938
    181 H88        -9.4300   -2.0950   -0.9540 h1        1 MOL      0.068938
    182 H89        -7.4250   -2.3470   -2.7960 hn        1 MOL      0.236450
    183 Ca1        -1.1470   -3.0190   -4.9860 Ca        1 MOL      1.648394
    184 O25        -2.9090   -1.0360   -6.2120 oh        1 MOL     -0.806813
    185 H90        -2.7500   -0.1320   -5.9390 ho        1 MOL      0.408396
    186 H91        -2.6850   -1.0450   -7.1380 ho        1 MOL      0.408396
    187 O26         0.3270   -0.8300   -5.7360 oh        1 MOL     -0.806813
    188 H92         1.2770   -0.8840   -5.7840 ho        1 MOL      0.408396
    189 H93         0.0870   -0.1010   -6.3040 ho        1 MOL      0.408396
    190 O27         1.7430   -3.6860   -5.0050 oh        1 MOL     -0.806813
    191 H94         1.7750   -4.0380   -4.1160 ho        1 MOL      0.408396
    192 H95         2.4400   -3.0200   -5.0210 ho        1 MOL      0.408396
@<TRIPOS>BOND
     1    1    2 1   
     2    1    4 1   
     3    1    5 1   
     4    1    6 1   
     5    2    3 2   
     6    2    7 1   
     7    7    8 1   
     8    7   15 1   
     9    8    9 1   
    10    8   11 1   
    11    8   16 1   
    12    9   10 2   
    13    9   19 1   
    14   11   12 1   
    15   11   17 1   
    16   11   18 1   
    17   12   13 1   
    18   12   14 1   
    19   19   20 1   
    20   19   28 1   
    21   20   21 1   
    22   20   23 1   
    23   20   29 1   
    24   21   22 2   
    25   21   41 1   
    26   23   24 1   
    27   23   30 1   
    28   23   31 1   
    29   24   25 1   
    30   24   32 1   
    31   24   33 1   
    32   25   26 1   
    33   25   34 1   
    34   25   35 1   
    35   26   27 1   
    36   26   36 1   
    37   26   37 1   
    38   27   38 1   
    39   27   39 1   
    40   27   40 1   
    41   41   42 1   
    42   41   49 1   
    43   42   43 1   
    44   42   45 1   
    45   42   50 1   
    46   43   44 2   
    47   43   53 1   
    48   45   46 1   
    49   45   51 1   
    50   45   52 1   
    51   46   47 1   
    52   46   48 1   
    53   53   54 1   
    54   53   57 1   
    55   54   55 1   
    56   54   58 1   
    57   54   59 1   
    58   55   56 2   
    59   55   60 1   
    60   60   61 1   
    61   60   68 1   
    62   61   62 1   
    63   61   64 1   
    64   61   69 1   
    65   62   63 2   
    66   62   72 1   
    67   64   65 1   
    68   64   70 1   
    69   64   71 1   
    70   65   66 1   
    71   65   67 1   
    72   72   73 1   
    73   72   76 1   
    74   73   74 1   
    75   73   77 1   
    76   73   78 1   
    77   74   75 2   
    78   74   79 1   
    79   79   80 1   
    80   79   86 1   
    81   80   81 1   
    82   80   83 1   
    83   80   87 1   
    84   81   82 2   
    85   81   93 1   
    86   83   84 1   
    87   83   85 1   
    88   83   88 1   
    89   84   90 1   
    90   84   91 1   
    91   84   92 1   
    92   85   89 1   
    93   93   94 1   
    94   93  101 1   
    95   94   95 1   
    96   94   97 1   
    97   94  102 1   
    98   95   96 2   
    99   95  112 1   
   100   97   98 1   
   101   97   99 1   
   102   97  103 1   
   103   98  100 1   
   104   98  104 1   
   105   98  105 1   
   106   99  106 1   
   107   99  107 1   
   108   99  108 1   
   109  100  109 1   
   110  100  110 1   
   111  100  111 1   
   112  112  113 1   
   113  112  119 1   
   114  113  114 1   
   115  113  116 1   
   116  113  120 1   
   117  114  115 2   
   118  114  126 1   
   119  116  117 1   
   120  116  118 1   
   121  116  121 1   
   122  117  123 1   
   123  117  124 1   
   124  117  125 1   
   125  118  122 1   
   126  126  127 1   
   127  126  133 1   
   128  127  128 1   
   129  127  130 1   
   130  127  134 1   
   131  128  129 2   
   132  128  140 1   
   133  130  131 1   
   134  130  132 1   
   135  130  135 1   
   136  131  137 1   
   137  131  138 1   
   138  131  139 1   
   139  132  136 1   
   140  140  141 1   
   141  140  149 1   
   142  141  142 1   
   143  141  144 1   
   144  141  150 1   
   145  142  143 2   
   146  142  162 1   
   147  144  145 1   
   148  144  151 1   
   149  144  152 1   
   150  145  146 1   
   151  145  153 1   
   152  145  154 1   
   153  146  147 1   
   154  146  155 1   
   155  146  156 1   
   156  147  148 1   
   157  147  157 1   
   158  147  158 1   
   159  148  159 1   
   160  148  160 1   
   161  148  161 1   
   162  162  163 1   
   163  162  171 1   
   164  163  164 1   
   165  163  166 1   
   166  163  172 1   
   167  164  165 2   
   168  164  177 1   
   169  166  167 1   
   170  166  173 1   
   171  166  174 1   
   172  167  168 1   
   173  167  175 1   
   174  167  176 1   
   175  168  169 1   
   176  168  170 1   
   177  177  178 1   
   178  177  182 1   
   179  178  179 1   
   180  178  180 1   
   181  178  181 1   
   182  184  185 1   
   183  184  186 1   
   184  187  188 1   
   185  187  189 1   
   186  190  191 1   
   187  190  192 1   
@<TRIPOS>SUBSTRUCTURE
     1 MOL         1 TEMP              0 ****  ****    0 ROOT
