@<TRIPOS>MOLECULE
MOL
  182   178     1     0     0
SMALL
resp


@<TRIPOS>ATOM
      1 C1          0.4900   -3.4880    6.2330 c3        1 MOL     -0.373584
      2 C2          0.6560   -3.4170    4.7340 c         1 MOL      0.781384
      3 O1         -0.3650   -3.5670    4.0300 o         1 MOL     -0.613956
      4 H1         -0.2930   -4.2050    6.4770 hc        1 MOL      0.107306
      5 H2          1.4280   -3.8060    6.6870 hc        1 MOL      0.107306
      6 H3          0.2140   -2.5060    6.6150 hc        1 MOL      0.107306
      7 N1          1.8330   -3.1940    4.1870 n         1 MOL     -0.633435
      8 C3          2.1110   -3.0270    2.7280 c3        1 MOL      0.133176
      9 C4          2.0000   -4.3330    1.8830 c         1 MOL      0.493015
     10 O2          2.0750   -5.4970    2.2890 o         1 MOL     -0.551963
     11 C5          3.3140   -2.1430    2.5700 c3        1 MOL     -0.134007
     12 C6          3.5200   -1.3830    1.2410 c         1 MOL      0.462284
     13 O3          4.0370   -0.2080    1.2680 o         1 MOL     -0.657742
     14 O4          2.9290   -1.8550    0.2380 o         1 MOL     -0.657742
     15 H4          2.6190   -3.0410    4.8080 hn        1 MOL      0.326593
     16 H5          1.2840   -2.4210    2.3480 h1        1 MOL     -0.017862
     17 H6          4.1960   -2.7680    2.7410 hc        1 MOL      0.070580
     18 H7          3.2760   -1.3760    3.3440 hc        1 MOL      0.070580
     19 N2          1.6430   -4.1980    0.6130 n         1 MOL     -0.102254
     20 C7          1.7770   -5.2220   -0.3910 c3        1 MOL     -0.193300
     21 C8          3.0350   -5.1380   -1.3020 c         1 MOL      0.576565
     22 O5          3.3330   -6.1970   -1.9310 o         1 MOL     -0.592178
     23 C9          0.4160   -5.1490   -1.1680 c3        1 MOL      0.060934
     24 C10         0.2400   -6.3130   -2.1730 c3        1 MOL     -0.066652
     25 C11        -1.2500   -6.4320   -2.7210 c3        1 MOL     -0.043694
     26 C12        -2.3110   -7.0650   -1.7930 c3        1 MOL      0.065976
     27 N3         -3.5230   -7.4040   -2.5980 n4        1 MOL     -0.225146
     28 H8          1.5240   -3.2550    0.2810 hn        1 MOL      0.151149
     29 H9          1.8890   -6.2230    0.0300 h1        1 MOL      0.133720
     30 H10         0.2140   -4.2070   -1.6800 hc        1 MOL      0.006466
     31 H11        -0.3500   -5.1840   -0.3940 hc        1 MOL      0.006466
     32 H12         0.6450   -7.2510   -1.7780 hc        1 MOL      0.056184
     33 H13         0.8350   -6.0210   -3.0310 hc        1 MOL      0.056184
     34 H14        -1.0770   -7.0920   -3.5600 hc        1 MOL      0.022656
     35 H15        -1.6440   -5.4580   -3.0240 hc        1 MOL      0.022656
     36 H16        -2.5130   -6.4140   -0.9430 hx        1 MOL      0.073906
     37 H17        -1.8760   -8.0000   -1.4380 hx        1 MOL      0.073906
     38 H18        -4.0860   -8.1110   -2.1520 hn        1 MOL      0.261703
     39 H19        -4.1720   -6.6530   -2.8040 hn        1 MOL      0.261703
     40 H20        -3.2590   -7.7860   -3.4890 hn        1 MOL      0.261703
     41 N4          3.7810   -4.0490   -1.3660 n         1 MOL     -0.304325
     42 C13         5.1050   -3.8470   -2.0200 c3        1 MOL      0.024990
     43 C14         6.2630   -3.2810   -1.1670 c         1 MOL      0.357672
     44 O6          7.3460   -2.9050   -1.6280 o         1 MOL     -0.497841
     45 C15         4.8890   -2.9390   -3.2260 c3        1 MOL     -0.262242
     46 C16         4.2090   -1.6190   -2.7980 c         1 MOL      0.836085
     47 O7          3.0400   -1.3540   -3.1580 o         1 MOL     -0.783283
     48 O8          4.7580   -0.8880   -1.9530 o         1 MOL     -0.783283
     49 H21         3.4810   -3.2670   -0.8120 hn        1 MOL      0.156802
     50 H22         5.3810   -4.8180   -2.4290 h1        1 MOL      0.124218
     51 H23         4.1620   -3.4280   -3.8660 hc        1 MOL      0.077912
     52 H24         5.8430   -2.7810   -3.7220 hc        1 MOL      0.077912
     53 N5          5.9730   -3.0770    0.0990 n         1 MOL     -0.169501
     54 C17         7.0190   -2.4720    1.0130 c3        1 MOL     -0.088352
     55 C18         7.5050   -1.0730    0.7380 c         1 MOL      0.501012
     56 O9          8.4540   -0.6630    1.4120 o         1 MOL     -0.515738
     57 H25         5.1040   -3.3340    0.5470 hn        1 MOL      0.151404
     58 H26         7.7960   -3.2150    1.1730 h1        1 MOL      0.082483
     59 H27         6.5550   -2.3270    1.9920 h1        1 MOL      0.082483
     60 N6          6.8610   -0.3050   -0.2120 n         1 MOL     -0.280221
     61 C19         7.3270    1.1190   -0.5120 c3        1 MOL     -0.012111
     62 C20         6.1280    2.1620   -0.5150 c         1 MOL      0.527160
     63 O10         5.0090    1.8640   -0.9620 o         1 MOL     -0.482350
     64 C21         8.1570    1.1910   -1.7540 c3        1 MOL     -0.267604
     65 C22         9.5490    0.6340   -1.5120 c         1 MOL      0.688596
     66 N7          9.8040   -0.5800   -1.9040 n         1 MOL     -0.811237
     67 O11        10.4220    1.3000   -0.9740 o         1 MOL     -0.575483
     68 H28         6.0450   -0.6410   -0.6920 hn        1 MOL      0.332846
     69 H29         7.9200    1.3610    0.3630 h1        1 MOL      0.060813
     70 H30         8.2900    2.2340   -2.0540 hc        1 MOL      0.080360
     71 H31         7.7010    0.6320   -2.5690 hc        1 MOL      0.080360
     72 H32         9.1190   -1.1430   -2.3990 hn        1 MOL      0.383437
     73 H33        10.6530   -0.9800   -1.5240 hn        1 MOL      0.383437
     74 N8          6.3720    3.4220   -0.1270 n         1 MOL     -0.378009
     75 C23         5.5440    4.5670   -0.4100 c3        1 MOL     -0.166902
     76 C24         4.3360    4.7160    0.5370 c         1 MOL      0.636062
     77 O12         4.5040    4.3270    1.6880 o         1 MOL     -0.483045
     78 H34         7.3170    3.6780    0.1380 hn        1 MOL      0.320099
     79 H35         5.1650    4.5970   -1.4360 h1        1 MOL      0.093620
     80 H36         6.1500    5.4580   -0.2150 h1        1 MOL      0.093620
     81 N9          3.1760    5.1520    0.0100 n         1 MOL     -0.626599
     82 C25         1.8650    4.8810    0.6270 c3        1 MOL      0.125837
     83 C26         1.6520    3.4410    1.0950 c         1 MOL      0.529489
     84 O13         2.3180    2.4680    0.7200 o         1 MOL     -0.582725
     85 C27         0.6640    5.3420   -0.2730 c3        1 MOL     -0.165718
     86 C28         0.6970    6.7930   -0.6410 ca        1 MOL      0.062617
     87 C29         0.8050    7.7370    0.4290 ca        1 MOL     -0.128050
     88 C30         0.5560    7.1750   -1.9670 ca        1 MOL     -0.128050
     89 C31         0.7930    9.0900    0.1580 ca        1 MOL     -0.289715
     90 C32         0.5320    8.5700   -2.2360 ca        1 MOL     -0.289715
     91 C33         0.6390    9.4990   -1.2010 ca        1 MOL      0.373388
     92 O14         0.5850   10.8350   -1.5180 oh        1 MOL     -0.521632
     93 H37         3.1680    5.3370   -0.9790 hn        1 MOL      0.333026
     94 H38         1.8350    5.4150    1.5770 h1        1 MOL      0.072687
     95 H39        -0.2970    5.1610    0.2250 hc        1 MOL      0.066350
     96 H40         0.6620    4.7390   -1.1760 hc        1 MOL      0.066350
     97 H41         0.8120    7.3810    1.4490 ha        1 MOL      0.133287
     98 H42         0.4360    6.4750   -2.7730 ha        1 MOL      0.133287
     99 H43         0.9090    9.8800    0.8880 ha        1 MOL      0.165746
    100 H44         0.3670    8.9530   -3.2300 ha        1 MOL      0.165746
    101 H45         0.5830   11.4440   -0.7730 ho        1 MOL      0.391693
    102 N10         0.6950    3.2090    1.9500 n         1 MOL     -0.581422
    103 C34         0.3160    1.8570    2.5280 c3        1 MOL      0.262585
    104 C35        -0.0620    0.6980    1.4590 c         1 MOL      0.094220
    105 O15         0.7820    0.2240    0.7280 o         1 MOL     -0.075505
    106 C36         1.2780    1.2710    3.5580 c3        1 MOL      0.079074
    107 C37         0.5700    0.1200    4.3360 c3        1 MOL      0.004143
    108 C38         1.8630    2.3940    4.4170 c3        1 MOL     -0.303856
    109 C39        -0.7130    0.5250    5.1490 c3        1 MOL     -0.157532
    110 H46         0.1700    4.0260    2.2560 hn        1 MOL      0.301086
    111 H47        -0.5800    2.0430    3.1180 h1        1 MOL     -0.002262
    112 H48         2.0580    0.8100    2.9550 hc        1 MOL      0.081298
    113 H49         1.3140   -0.3290    4.9980 hc        1 MOL      0.004162
    114 H50         0.3260   -0.6790    3.6520 hc        1 MOL      0.004162
    115 H51         2.4360    3.1030    3.8110 hc        1 MOL      0.084054
    116 H52         1.1450    2.8400    5.1030 hc        1 MOL      0.084054
    117 H53         2.5280    2.0070    5.1790 hc        1 MOL      0.084054
    118 H54        -1.5490    0.3900    4.4710 hc        1 MOL      0.044438
    119 H55        -0.9530   -0.1500    5.9730 hc        1 MOL      0.044438
    120 H56        -0.6840    1.5310    5.5640 hc        1 MOL      0.044438
    121 N11        -1.2930    0.2620    1.4310 n         1 MOL     -0.346249
    122 C40        -1.7100   -0.7630    0.4080 c3        1 MOL      0.010903
    123 C41        -3.1960   -0.7880    0.0920 c         1 MOL      0.642517
    124 O16        -3.5800   -1.4920   -0.8270 o         1 MOL     -0.565701
    125 C42        -1.2650   -2.1720    0.9220 c3        1 MOL      0.292561
    126 O17        -2.0010   -2.4570    2.0740 oh        1 MOL     -0.651821
    127 H57        -1.9760    0.7290    2.0290 hn        1 MOL      0.287362
    128 H58        -1.1600   -0.6570   -0.5240 h1        1 MOL      0.014671
    129 H59        -0.2020   -2.2710    1.1470 h1        1 MOL     -0.027179
    130 H60        -1.3810   -2.8780    0.1040 h1        1 MOL     -0.027179
    131 H61        -1.3800   -2.8790    2.6690 ho        1 MOL      0.438191
    132 N12        -4.0660    0.0760    0.6490 n         1 MOL     -0.631167
    133 C43        -5.5050    0.0700    0.1850 c3        1 MOL      0.359906
    134 C44        -5.6820    0.7040   -1.2540 c         1 MOL      0.576305
    135 O18        -4.7290    1.3640   -1.6370 o         1 MOL     -0.590307
    136 C45        -6.3430    0.7280    1.3350 c3        1 MOL     -0.491561
    137 H62        -3.7650    0.8670    1.2010 hn        1 MOL      0.297209
    138 H63        -5.9170   -0.9420    0.1390 h1        1 MOL      0.054362
    139 H64        -7.3940    0.8870    1.1260 hc        1 MOL      0.138779
    140 H65        -6.3410   -0.0390    2.1070 hc        1 MOL      0.138779
    141 H66        -5.9220    1.7030    1.6200 hc        1 MOL      0.138779
    142 N13        -6.7820    0.6200   -1.9570 n         1 MOL     -0.627029
    143 C46        -8.0630   -0.0310   -1.5590 c3        1 MOL      0.274678
    144 C47        -9.2840    0.6870   -2.2120 c         1 MOL      0.436378
    145 O19        -9.1360    1.0990   -3.3650 o         1 MOL     -0.545705
    146 C48        -8.0390   -1.5870   -1.8390 c3        1 MOL     -0.060821
    147 H67        -6.6730    0.8740   -2.9260 hn        1 MOL      0.344114
    148 H68        -8.2020    0.1060   -0.4830 h1        1 MOL     -0.024519
    149 H69        -7.1390   -1.9910   -1.3680 hc        1 MOL      0.025679
    150 H70        -8.9610   -2.0180   -1.4390 hc        1 MOL      0.025679
    151 H71        -8.0250   -1.8860   -2.8870 hc        1 MOL      0.025679
    152 N14       -10.4560    0.9260   -1.5880 n         1 MOL     -0.350188
    153 C49       -10.8840    0.5420   -0.2120 c3        1 MOL     -0.177489
    154 C50       -10.2590    1.5010    0.8340 c         1 MOL      0.427393
    155 O20        -9.9490    1.0520    1.9030 o         1 MOL     -0.480348
    156 C51       -12.3780    0.5630    0.1050 c3        1 MOL      0.176142
    157 C52       -13.1750   -0.4540   -0.6830 c3        1 MOL     -0.102635
    158 C53       -12.6960   -1.9200   -0.3670 c         1 MOL      0.763759
    159 O21       -12.9920   -2.3440    0.7520 o         1 MOL     -0.697604
    160 O22       -12.0520   -2.5210   -1.1750 o         1 MOL     -0.697604
    161 H72       -11.1090    1.5610   -2.0320 hn        1 MOL      0.280797
    162 H73       -10.4550   -0.4520   -0.0670 h1        1 MOL      0.129784
    163 H74       -12.8370    1.5530    0.0590 hc        1 MOL     -0.006055
    164 H75       -12.4380    0.2750    1.1540 hc        1 MOL     -0.006055
    165 H76       -13.0740   -0.2060   -1.7330 hc        1 MOL     -0.038479
    166 H77       -14.2140   -0.3720   -0.3490 hc        1 MOL     -0.038479
    167 N15       -10.1680    2.8050    0.5050 n         1 MOL     -0.299046
    168 C54        -9.3610    3.7200    1.3280 c3        1 MOL     -0.220463
    169 H78        -9.2330    4.6650    0.7990 h1        1 MOL      0.103292
    170 H79        -9.8690    3.9010    2.2750 h1        1 MOL      0.103292
    171 H80        -8.3850    3.2750    1.5170 h1        1 MOL      0.103292
    172 H81       -10.5190    3.1680   -0.3750 hn        1 MOL      0.256975
    173 Ca1         2.7840    0.4640   -1.0060 Ca        1 MOL      1.736579
    174 O23         0.6860   -1.6000   -1.7540 oh        1 MOL     -0.866909
    175 H82         1.3450   -1.8350   -2.4030 ho        1 MOL      0.422984
    176 H83        -0.1450   -1.7500   -2.2040 ho        1 MOL      0.422984
    177 O24         0.6040    1.6270   -2.1030 oh        1 MOL     -0.866909
    178 H84        -0.2670    1.8530   -1.7760 ho        1 MOL      0.422984
    179 H85         0.5380    1.7060   -3.0530 ho        1 MOL      0.422984
    180 O25         3.1700    1.8840   -3.4070 oh        1 MOL     -0.866909
    181 H86         3.2830    2.7750   -3.7310 ho        1 MOL      0.422984
    182 H87         3.1370    1.3410   -4.1940 ho        1 MOL      0.422984
@<TRIPOS>BOND
     1    1    2 1   
     2    1    4 1   
     3    1    5 1   
     4    1    6 1   
     5    2    3 2   
     6    2    7 1   
     7    7    8 1   
     8    7   15 1   
     9    8    9 1   
    10    8   11 1   
    11    8   16 1   
    12    9   10 2   
    13    9   19 1   
    14   11   12 1   
    15   11   17 1   
    16   11   18 1   
    17   12   13 1   
    18   12   14 1   
    19   19   20 1   
    20   19   28 1   
    21   20   21 1   
    22   20   23 1   
    23   20   29 1   
    24   21   22 2   
    25   21   41 1   
    26   23   24 1   
    27   23   30 1   
    28   23   31 1   
    29   24   25 1   
    30   24   32 1   
    31   24   33 1   
    32   25   26 1   
    33   25   34 1   
    34   25   35 1   
    35   26   27 1   
    36   26   36 1   
    37   26   37 1   
    38   27   38 1   
    39   27   39 1   
    40   27   40 1   
    41   41   42 1   
    42   41   49 1   
    43   42   43 1   
    44   42   45 1   
    45   42   50 1   
    46   43   44 2   
    47   43   53 1   
    48   45   46 1   
    49   45   51 1   
    50   45   52 1   
    51   46   47 1   
    52   46   48 1   
    53   53   54 1   
    54   53   57 1   
    55   54   55 1   
    56   54   58 1   
    57   54   59 1   
    58   55   56 2   
    59   55   60 1   
    60   60   61 1   
    61   60   68 1   
    62   61   62 1   
    63   61   64 1   
    64   61   69 1   
    65   62   63 2   
    66   62   74 1   
    67   64   65 1   
    68   64   70 1   
    69   64   71 1   
    70   65   66 1   
    71   65   67 2   
    72   66   72 1   
    73   66   73 1   
    74   74   75 1   
    75   74   78 1   
    76   75   76 1   
    77   75   79 1   
    78   75   80 1   
    79   76   77 2   
    80   76   81 1   
    81   81   82 1   
    82   81   93 1   
    83   82   83 1   
    84   82   85 1   
    85   82   94 1   
    86   83   84 2   
    87   83  102 1   
    88   85   86 1   
    89   85   95 1   
    90   85   96 1   
    91   86   87 ar  
    92   86   88 ar  
    93   87   89 ar  
    94   87   97 1   
    95   88   90 ar  
    96   88   98 1   
    97   89   91 ar  
    98   89   99 1   
    99   90   91 ar  
   100   90  100 1   
   101   91   92 1   
   102   92  101 1   
   103  102  103 1   
   104  102  110 1   
   105  103  104 1   
   106  103  106 1   
   107  103  111 1   
   108  104  105 2   
   109  104  121 1   
   110  106  107 1   
   111  106  108 1   
   112  106  112 1   
   113  107  109 1   
   114  107  113 1   
   115  107  114 1   
   116  108  115 1   
   117  108  116 1   
   118  108  117 1   
   119  109  118 1   
   120  109  119 1   
   121  109  120 1   
   122  121  122 1   
   123  121  127 1   
   124  122  123 1   
   125  122  125 1   
   126  122  128 1   
   127  123  124 2   
   128  123  132 1   
   129  125  126 1   
   130  125  129 1   
   131  125  130 1   
   132  126  131 1   
   133  132  133 1   
   134  132  137 1   
   135  133  134 1   
   136  133  136 1   
   137  133  138 1   
   138  134  135 2   
   139  134  142 1   
   140  136  139 1   
   141  136  140 1   
   142  136  141 1   
   143  142  143 1   
   144  142  147 1   
   145  143  144 1   
   146  143  146 1   
   147  143  148 1   
   148  144  145 2   
   149  144  152 1   
   150  146  149 1   
   151  146  150 1   
   152  146  151 1   
   153  152  153 1   
   154  152  161 1   
   155  153  154 1   
   156  153  156 1   
   157  153  162 1   
   158  154  155 2   
   159  154  167 1   
   160  156  157 1   
   161  156  163 1   
   162  156  164 1   
   163  157  158 1   
   164  157  165 1   
   165  157  166 1   
   166  158  159 1   
   167  158  160 1   
   168  167  168 1   
   169  167  172 1   
   170  168  169 1   
   171  168  170 1   
   172  168  171 1   
   173  174  175 1   
   174  174  176 1   
   175  177  178 1   
   176  177  179 1   
   177  180  181 1   
   178  180  182 1   
@<TRIPOS>SUBSTRUCTURE
     1 MOL         1 TEMP              0 ****  ****    0 ROOT
