@<TRIPOS>MOLECULE
MOL
  186   183     1     0     0
SMALL
resp


@<TRIPOS>ATOM
      1 C1          4.9270    4.3040   -3.1870 c3        1 MOL     -0.338510
      2 C2          5.5210    3.2150   -2.2510 c         1 MOL      0.725806
      3 O1          5.0250    2.9870   -1.1620 o         1 MOL     -0.623140
      4 H1          4.3540    5.0180   -2.5950 hc        1 MOL      0.082215
      5 H2          5.7370    4.8240   -3.6990 hc        1 MOL      0.082215
      6 H3          4.2740    3.8350   -3.9220 hc        1 MOL      0.082215
      7 N1          6.5810    2.5260   -2.6680 n         1 MOL     -0.731156
      8 C3          7.1630    1.2730   -2.1720 c3        1 MOL      0.321690
      9 C4          6.1810    0.1450   -1.9560 c         1 MOL      0.299130
     10 O2          5.6410   -0.0600   -0.8560 o         1 MOL     -0.322225
     11 C5          8.2870    1.5600   -1.0350 c3        1 MOL     -0.373688
     12 C6          7.9250    2.5990   -0.0060 c         1 MOL      0.908403
     13 O3          7.0870    2.3380    0.8810 o         1 MOL     -0.771791
     14 O4          8.6660    3.6130    0.1900 o         1 MOL     -0.771791
     15 H4          7.0050    2.8210   -3.5320 hn        1 MOL      0.335466
     16 H5          7.7240    0.9030   -3.0250 h1        1 MOL     -0.008054
     17 H6          9.1650    1.8830   -1.5970 hc        1 MOL      0.072532
     18 H7          8.5210    0.6530   -0.4690 hc        1 MOL      0.072532
     19 N2          5.7260   -0.5270   -3.0020 n         1 MOL     -0.383925
     20 C7          4.8740   -1.7590   -2.9530 c3        1 MOL      0.060029
     21 C8          5.5460   -2.8190   -1.9950 c         1 MOL      0.339073
     22 O5          6.0420   -3.8280   -2.5580 o         1 MOL     -0.584991
     23 C9          3.3960   -1.4790   -2.6400 c3        1 MOL      0.442664
     24 C10         2.5130   -2.7210   -2.6560 c3        1 MOL     -0.007474
     25 C11         2.8020   -0.4990   -3.6960 c3        1 MOL     -0.385983
     26 C12         2.6310   -3.7290   -3.8200 c3        1 MOL     -0.323478
     27 H8          5.9070   -0.1580   -3.9290 hn        1 MOL      0.244389
     28 H9          4.8970   -2.1310   -3.9790 h1        1 MOL      0.031359
     29 H10         3.2510   -0.9690   -1.6950 hc        1 MOL     -0.132616
     30 H11         1.4820   -2.3580   -2.6580 hc        1 MOL      0.058095
     31 H12         2.6160   -3.2270   -1.7010 hc        1 MOL      0.058095
     32 H13         1.7350   -0.3140   -3.5770 hc        1 MOL      0.071603
     33 H14         3.2150    0.5090   -3.6090 hc        1 MOL      0.071603
     34 H15         3.0960   -0.7430   -4.7140 hc        1 MOL      0.071603
     35 H16         3.6040   -4.2290   -3.8070 hc        1 MOL      0.058879
     36 H17         1.8430   -4.4620   -3.6520 hc        1 MOL      0.058879
     37 H18         2.4580   -3.1900   -4.7510 hc        1 MOL      0.058879
     38 N3          5.5270   -2.6590   -0.6740 n         1 MOL      0.247553
     39 C13         6.1910   -3.5730    0.3020 c3        1 MOL      0.008530
     40 C14         5.6320   -5.0110    0.3790 c         1 MOL      0.632894
     41 O6          6.4720   -5.9150    0.2450 o         1 MOL     -0.608396
     42 C15         6.2030   -2.8410    1.7060 c3        1 MOL     -0.050993
     43 C16         6.8370   -1.4430    1.6260 c         1 MOL      0.697447
     44 O7          7.9340   -1.2470    1.1190 o         1 MOL     -0.692210
     45 O8          6.1720   -0.5170    2.2170 o         1 MOL     -0.692210
     46 H19         5.0360   -1.8580   -0.3150 hn        1 MOL     -0.297125
     47 H20         7.2300   -3.6330   -0.0150 h1        1 MOL      0.026645
     48 H21         6.5910   -3.5040    2.4710 hc        1 MOL      0.040421
     49 H22         5.1530   -2.6370    1.9270 hc        1 MOL      0.040421
     50 N4          4.3950   -5.3480    0.6310 n         1 MOL     -0.663937
     51 C17         3.3520   -4.5180    1.1010 c3        1 MOL      0.303618
     52 C18         3.5530   -4.2440    2.5880 c         1 MOL      0.216423
     53 O9          4.2350   -5.0170    3.3790 o         1 MOL     -0.503882
     54 H23         4.2530   -6.3320    0.7990 hn        1 MOL      0.327026
     55 H24         2.3770   -5.0070    0.9750 h1        1 MOL      0.025903
     56 H25         3.4100   -3.5680    0.5830 h1        1 MOL      0.025903
     57 N5          2.9380   -3.1500    3.0740 n         1 MOL     -0.209941
     58 C19         1.8700   -2.2720    2.4430 c3        1 MOL      0.187877
     59 C20         2.1400   -1.4730    1.1450 c         1 MOL      0.082211
     60 O10         3.3110   -1.1700    0.8500 o         1 MOL     -0.635199
     61 C21         1.6070   -1.1910    3.4790 c3        1 MOL     -0.390801
     62 C22         2.8250   -0.3800    3.8330 c         1 MOL      0.754580
     63 O11         3.2650    0.5430    3.1070 o         1 MOL     -0.680837
     64 O12         3.4810   -0.5940    4.9060 o         1 MOL     -0.680837
     65 H26         2.8720   -3.1170    4.0790 hn        1 MOL      0.243396
     66 H27         0.9750   -2.9010    2.3840 h1        1 MOL      0.011462
     67 H28         1.1480   -1.5590    4.4010 hc        1 MOL      0.103147
     68 H29         0.8920   -0.4410    3.1320 hc        1 MOL      0.103147
     69 N6          1.1490   -1.0970    0.3820 n         1 MOL     -0.024530
     70 C23        -0.3220   -1.3830    0.5050 c3        1 MOL     -0.092025
     71 C24        -0.7840   -2.8150    0.0340 c         1 MOL      0.484987
     72 O13        -0.0160   -3.4950   -0.6890 o         1 MOL     -0.521599
     73 H30         1.3710   -0.5360   -0.4310 hn        1 MOL      0.247111
     74 H31        -0.8490   -0.6270   -0.0760 h1        1 MOL      0.066443
     75 H32        -0.5100   -1.2380    1.5580 h1        1 MOL      0.066443
     76 N7         -2.0510   -3.0720    0.3100 n         1 MOL     -0.388408
     77 C25        -2.7460   -4.2460   -0.2270 c3        1 MOL      0.149684
     78 C26        -3.6390   -3.9210   -1.3560 c         1 MOL      0.434694
     79 O14        -4.2180   -4.9270   -1.8500 o         1 MOL     -0.530543
     80 C27        -3.3970   -4.9440    0.9600 c3        1 MOL     -0.283473
     81 C28        -4.4250   -4.1410    1.6680 c3        1 MOL     -0.231151
     82 C29        -5.7040   -3.8150    0.9470 c         1 MOL      0.484869
     83 N8         -6.7100   -4.6650    0.8470 n         1 MOL     -0.567223
     84 O15        -5.8760   -2.7000    0.4250 o         1 MOL     -0.585716
     85 H33        -2.6470   -2.4860    0.8720 hn        1 MOL      0.298509
     86 H34        -2.0140   -4.9320   -0.6590 h1        1 MOL      0.083406
     87 H35        -2.6220   -5.2630    1.6550 hc        1 MOL      0.113619
     88 H36        -3.9960   -5.7560    0.5450 hc        1 MOL      0.113619
     89 H37        -3.9710   -3.1820    1.9430 hc        1 MOL      0.109595
     90 H38        -4.7690   -4.6230    2.5820 hc        1 MOL      0.109595
     91 H39        -6.6970   -5.5230    1.3940 hn        1 MOL      0.303333
     92 H40        -7.4850   -4.3010    0.3230 hn        1 MOL      0.303333
     93 N9         -3.8010   -2.6340   -1.7660 n         1 MOL     -0.177161
     94 C30        -4.2020   -2.2210   -3.0840 c3        1 MOL     -0.014176
     95 C31        -5.4900   -1.4540   -3.1200 c         1 MOL      0.351099
     96 O16        -6.0650   -1.2360   -4.1960 o         1 MOL     -0.547394
     97 C32        -3.0750   -1.4440   -3.9070 c3        1 MOL      0.150678
     98 C33        -1.8770   -2.3100   -4.2820 c3        1 MOL     -0.157739
     99 C34        -2.4610   -0.2650   -3.0350 c3        1 MOL     -0.157739
    100 H41        -3.4050   -1.8260   -1.3120 hn        1 MOL      0.114075
    101 H42        -4.4810   -3.0690   -3.7120 h1        1 MOL      0.081830
    102 H43        -3.5740   -1.1020   -4.8100 hc        1 MOL      0.017228
    103 H44        -1.4070   -2.7650   -3.4030 hc        1 MOL      0.032052
    104 H45        -2.2220   -3.0960   -4.9560 hc        1 MOL      0.032052
    105 H46        -1.1310   -1.6660   -4.7580 hc        1 MOL      0.032052
    106 H47        -1.8650    0.2930   -3.7520 hc        1 MOL      0.032052
    107 H48        -3.2680    0.3600   -2.6440 hc        1 MOL      0.032052
    108 H49        -1.8190   -0.5490   -2.1980 hc        1 MOL      0.032052
    109 N10        -6.0050   -1.0470   -1.9550 n         1 MOL     -0.118293
    110 C35        -7.1940   -0.2610   -1.7560 c3        1 MOL     -0.114597
    111 C36        -7.1240    1.1820   -1.1890 c         1 MOL      0.533445
    112 O17        -8.1380    1.8360   -1.2160 o         1 MOL     -0.533272
    113 C37        -8.2970   -1.0190   -0.9730 c3        1 MOL     -0.225231
    114 C38        -8.6060   -2.4850   -1.4330 c         1 MOL      0.636084
    115 N11        -8.9330   -2.7420   -2.6970 n         1 MOL     -0.763085
    116 O18        -8.8220   -3.3820   -0.5850 o         1 MOL     -0.565614
    117 H50        -5.4460   -1.2990   -1.1500 hn        1 MOL      0.288818
    118 H51        -7.6980   -0.1390   -2.7210 h1        1 MOL      0.073746
    119 H52        -9.1850   -0.3940   -0.8700 hc        1 MOL      0.086868
    120 H53        -8.0280   -1.0100    0.0810 hc        1 MOL      0.086868
    121 H54        -8.8350   -1.9930   -3.3720 hn        1 MOL      0.374968
    122 H55        -9.2970   -3.6670   -2.8470 hn        1 MOL      0.374968
    123 N12        -6.0260    1.5460   -0.5210 n         1 MOL     -0.329958
    124 C39        -5.7920    2.8080    0.2060 c3        1 MOL      0.016535
    125 C40        -4.3360    3.1140    0.3990 c         1 MOL      0.439949
    126 O19        -3.5100    2.2690    0.2110 o         1 MOL     -0.374883
    127 C41        -6.5170    2.6870    1.6280 c3        1 MOL     -0.215103
    128 C42        -6.2280    1.4390    2.3470 ca        1 MOL      0.348782
    129 C43        -7.1040    0.3300    2.4190 ca        1 MOL     -0.379776
    130 C44        -5.0200    1.3540    3.0700 ca        1 MOL     -0.379776
    131 C45        -6.6970   -0.8560    3.0910 ca        1 MOL     -0.136662
    132 C46        -4.6750    0.2110    3.7480 ca        1 MOL     -0.136662
    133 C47        -5.4840   -0.9260    3.7600 ca        1 MOL      0.275107
    134 O20        -5.0790   -2.0520    4.3510 oh        1 MOL     -0.433193
    135 H56        -5.2480    0.9050   -0.4640 hn        1 MOL      0.176276
    136 H57        -6.1050    3.6120   -0.4540 h1        1 MOL      0.056967
    137 H58        -7.6080    2.7480    1.6140 hc        1 MOL      0.074869
    138 H59        -6.2580    3.5070    2.2860 hc        1 MOL      0.074869
    139 H60        -8.0890    0.3760    1.9760 ha        1 MOL      0.172982
    140 H61        -4.2300    2.0980    3.1100 ha        1 MOL      0.172982
    141 H62        -7.3610   -1.7150    3.0700 ha        1 MOL      0.121717
    142 H63        -3.7920    0.2240    4.3820 ha        1 MOL      0.121717
    143 H64        -5.7240   -2.7650    4.2750 ho        1 MOL      0.292932
    144 N13        -4.0640    4.3630    0.8020 n         1 MOL     -0.456941
    145 C48        -2.7760    5.0070    1.1420 c3        1 MOL     -0.017533
    146 C49        -1.7350    5.1190    0.0250 c         1 MOL      0.595245
    147 O21        -0.9920    6.1150    0.0350 o         1 MOL     -0.547739
    148 C50        -2.2490    4.4650    2.4080 c3        1 MOL      0.127396
    149 C51        -3.0100    4.6090    3.6560 c3        1 MOL     -0.082559
    150 C52        -2.4390    4.0370    4.9180 c         1 MOL      0.609201
    151 O22        -2.5680    2.8410    5.2700 o         1 MOL     -0.671347
    152 O23        -1.7650    4.7110    5.7250 o         1 MOL     -0.671347
    153 H65        -4.8760    4.9540    0.8950 hn        1 MOL      0.282014
    154 H66        -3.0790    6.0520    1.2480 h1        1 MOL      0.059699
    155 H67        -1.2470    4.8540    2.6030 hc        1 MOL      0.032018
    156 H68        -2.1630    3.3950    2.2230 hc        1 MOL      0.032018
    157 H69        -4.0130    4.2240    3.5080 hc        1 MOL     -0.036950
    158 H70        -2.9720    5.6610    3.9270 hc        1 MOL     -0.036950
    159 N14        -1.6750    4.2440   -0.9620 n         1 MOL     -0.659403
    160 C53        -0.5280    4.2990   -1.9190 c3        1 MOL     -0.138055
    161 C54        -0.7600    5.2230   -3.0990 c         1 MOL      0.566294
    162 O24         0.1590    5.4170   -3.9310 o         1 MOL     -0.567203
    163 C55        -0.1150    2.8250   -2.1460 c3        1 MOL     -0.068382
    164 C56         0.2020    1.9110   -0.9620 c3        1 MOL      0.443728
    165 C57         1.4300    2.3900   -0.1210 c         1 MOL      0.436029
    166 O25         1.4670    3.5230    0.3690 o         1 MOL     -0.571382
    167 O26         2.4310    1.6400    0.0370 o         1 MOL     -0.571382
    168 H71        -2.1670    3.3670   -0.9720 hn        1 MOL      0.325505
    169 H72         0.3490    4.7260   -1.4390 h1        1 MOL      0.181210
    170 H73         0.8150    2.7270   -2.7030 hc        1 MOL      0.021630
    171 H74        -0.8130    2.3140   -2.8040 hc        1 MOL      0.021630
    172 H75         0.3280    0.8850   -1.3310 hc        1 MOL     -0.151773
    173 H76        -0.7140    1.7510   -0.3910 hc        1 MOL     -0.151773
    174 N15        -1.9690    5.7410   -3.2730 n         1 MOL     -0.270220
    175 C58        -2.4670    6.6610   -4.2420 c3        1 MOL     -0.108175
    176 H77        -3.0340    7.4460   -3.7390 h1        1 MOL      0.060629
    177 H78        -1.6330    7.1060   -4.7840 h1        1 MOL      0.060629
    178 H79        -3.1170    6.1360   -4.9420 h1        1 MOL      0.060629
    179 H80        -2.5140    5.7540   -2.4210 hn        1 MOL      0.251133
    180 Ca1         4.7160    1.2590    1.1770 Ca        1 MOL      1.775492
    181 O27         4.9250    2.7100    3.6060 oh        1 MOL     -0.827703
    182 H81         4.5810    2.4020    4.4510 ho        1 MOL      0.394674
    183 H82         4.8780    3.6660    3.6620 ho        1 MOL      0.394674
    184 O28         3.9160    4.2970    0.9320 oh        1 MOL     -0.827703
    185 H83         3.1050    4.0380    0.4860 ho        1 MOL      0.394674
    186 H84         4.3670    4.8590    0.3000 ho        1 MOL      0.394674
@<TRIPOS>BOND
     1    1    2 1   
     2    1    4 1   
     3    1    5 1   
     4    1    6 1   
     5    2    3 2   
     6    2    7 1   
     7    7    8 1   
     8    7   15 1   
     9    8    9 1   
    10    8   11 1   
    11    8   16 1   
    12    9   10 2   
    13    9   19 1   
    14   11   12 1   
    15   11   17 1   
    16   11   18 1   
    17   12   13 1   
    18   12   14 1   
    19   19   20 1   
    20   19   27 1   
    21   20   21 1   
    22   20   23 1   
    23   20   28 1   
    24   21   22 2   
    25   21   38 1   
    26   23   24 1   
    27   23   25 1   
    28   23   29 1   
    29   24   26 1   
    30   24   30 1   
    31   24   31 1   
    32   25   32 1   
    33   25   33 1   
    34   25   34 1   
    35   26   35 1   
    36   26   36 1   
    37   26   37 1   
    38   38   39 1   
    39   38   46 1   
    40   39   40 1   
    41   39   42 1   
    42   39   47 1   
    43   40   41 2   
    44   40   50 1   
    45   42   43 1   
    46   42   48 1   
    47   42   49 1   
    48   43   44 1   
    49   43   45 1   
    50   50   51 1   
    51   50   54 1   
    52   51   52 1   
    53   51   55 1   
    54   51   56 1   
    55   52   53 2   
    56   52   57 1   
    57   57   58 1   
    58   57   65 1   
    59   58   59 1   
    60   58   61 1   
    61   58   66 1   
    62   59   60 2   
    63   59   69 1   
    64   61   62 1   
    65   61   67 1   
    66   61   68 1   
    67   62   63 1   
    68   62   64 1   
    69   69   70 1   
    70   69   73 1   
    71   70   71 1   
    72   70   74 1   
    73   70   75 1   
    74   71   72 2   
    75   71   76 1   
    76   76   77 1   
    77   76   85 1   
    78   77   78 1   
    79   77   80 1   
    80   77   86 1   
    81   78   79 2   
    82   78   93 1   
    83   80   81 1   
    84   80   87 1   
    85   80   88 1   
    86   81   82 1   
    87   81   89 1   
    88   81   90 1   
    89   82   83 1   
    90   82   84 2   
    91   83   91 1   
    92   83   92 1   
    93   93   94 1   
    94   93  100 1   
    95   94   95 1   
    96   94   97 1   
    97   94  101 1   
    98   95   96 2   
    99   95  109 1   
   100   97   98 1   
   101   97   99 1   
   102   97  102 1   
   103   98  103 1   
   104   98  104 1   
   105   98  105 1   
   106   99  106 1   
   107   99  107 1   
   108   99  108 1   
   109  109  110 1   
   110  109  117 1   
   111  110  111 1   
   112  110  113 1   
   113  110  118 1   
   114  111  112 2   
   115  111  123 1   
   116  113  114 1   
   117  113  119 1   
   118  113  120 1   
   119  114  115 1   
   120  114  116 2   
   121  115  121 1   
   122  115  122 1   
   123  123  124 1   
   124  123  135 1   
   125  124  125 1   
   126  124  127 1   
   127  124  136 1   
   128  125  126 2   
   129  125  144 1   
   130  127  128 1   
   131  127  137 1   
   132  127  138 1   
   133  128  129 ar  
   134  128  130 ar  
   135  129  131 ar  
   136  129  139 1   
   137  130  132 ar  
   138  130  140 1   
   139  131  133 ar  
   140  131  141 1   
   141  132  133 ar  
   142  132  142 1   
   143  133  134 1   
   144  134  143 1   
   145  144  145 1   
   146  144  153 1   
   147  145  146 1   
   148  145  148 1   
   149  145  154 1   
   150  146  147 2   
   151  146  159 1   
   152  148  149 1   
   153  148  155 1   
   154  148  156 1   
   155  149  150 1   
   156  149  157 1   
   157  149  158 1   
   158  150  151 1   
   159  150  152 1   
   160  159  160 1   
   161  159  168 1   
   162  160  161 1   
   163  160  163 1   
   164  160  169 1   
   165  161  162 2   
   166  161  174 1   
   167  163  164 1   
   168  163  170 1   
   169  163  171 1   
   170  164  165 1   
   171  164  172 1   
   172  164  173 1   
   173  165  166 1   
   174  165  167 1   
   175  174  175 1   
   176  174  179 1   
   177  175  176 1   
   178  175  177 1   
   179  175  178 1   
   180  181  182 1   
   181  181  183 1   
   182  184  185 1   
   183  184  186 1   
@<TRIPOS>SUBSTRUCTURE
     1 MOL         1 TEMP              0 ****  ****    0 ROOT
