@<TRIPOS>MOLECULE
MOL
  185   180     1     0     0
SMALL
resp


@<TRIPOS>ATOM
      1 C1         -5.2710    0.0200   -4.1980 c3        1 MOL     -0.458843
      2 C2         -6.2070    0.3520   -3.0450 c         1 MOL      0.583076
      3 O1         -5.7460    0.6470   -1.9420 o         1 MOL     -0.511636
      4 H1         -4.6530   -0.8360   -3.9280 hc        1 MOL      0.123625
      5 H2         -5.8570   -0.2200   -5.0850 hc        1 MOL      0.123625
      6 H3         -4.6310    0.8780   -4.4060 hc        1 MOL      0.123625
      7 N1         -7.5050    0.3460   -3.2450 n         1 MOL     -0.492952
      8 C3         -8.6430    0.6500   -2.3300 c3        1 MOL      0.213260
      9 C4         -8.4990   -0.0380   -0.9340 c         1 MOL      0.265066
     10 O2         -8.9930    0.5340    0.0590 o         1 MOL     -0.431019
     11 C5         -8.7490    2.1980   -2.3060 c3        1 MOL     -0.319660
     12 C6         -9.9420    2.6430   -1.4770 c         1 MOL      0.720853
     13 O3        -11.0810    2.0850   -1.6150 o         1 MOL     -0.688811
     14 O4         -9.8800    3.6100   -0.6850 o         1 MOL     -0.688811
     15 H4         -7.6810    0.2380   -4.2400 hn        1 MOL      0.302967
     16 H5         -9.5410    0.2860   -2.8330 h1        1 MOL      0.015375
     17 H6         -8.8770    2.5470   -3.3360 hc        1 MOL      0.083973
     18 H7         -7.8120    2.5780   -1.9050 hc        1 MOL      0.083973
     19 N2         -7.8950   -1.1730   -0.8860 n         1 MOL     -0.027098
     20 C7         -7.6490   -1.9710    0.2620 c3        1 MOL      0.118695
     21 C8         -6.2280   -2.5140    0.3240 c         1 MOL      0.500546
     22 O5         -5.9350   -3.5830    0.8340 o         1 MOL     -0.571834
     23 C9         -8.6760   -3.1660    0.2080 c3        1 MOL     -0.137228
     24 C10       -10.1690   -2.8050    0.4320 c3        1 MOL     -0.102065
     25 C11       -10.4230   -2.2490    1.8030 c3        1 MOL      0.119199
     26 C12       -11.9880   -2.0080    1.7880 c3        1 MOL      0.008969
     27 N3        -12.4380   -1.5320    3.0910 n4        1 MOL     -0.217471
     28 H8         -7.7080   -1.5180   -1.8190 hn        1 MOL      0.108851
     29 H9         -7.7600   -1.3890    1.1740 h1        1 MOL      0.041720
     30 H10        -8.5250   -3.9040    0.9960 hc        1 MOL      0.056880
     31 H11        -8.5050   -3.7040   -0.7240 hc        1 MOL      0.056880
     32 H12       -10.7060   -3.7510    0.4060 hc        1 MOL      0.025957
     33 H13       -10.5110   -2.0800   -0.2990 hc        1 MOL      0.025957
     34 H14        -9.9600   -1.2860    2.0050 hc        1 MOL      0.006702
     35 H15       -10.1050   -2.9620    2.5600 hc        1 MOL      0.006702
     36 H16       -12.3890   -3.0020    1.6070 hx        1 MOL      0.080137
     37 H17       -12.3380   -1.2800    1.0520 hx        1 MOL      0.080137
     38 H18       -13.4290   -1.7120    3.1600 hn        1 MOL      0.265034
     39 H19       -11.9680   -1.9770    3.8740 hn        1 MOL      0.265034
     40 H20       -12.3060   -0.5480    3.1980 hn        1 MOL      0.265034
     41 N4         -5.2640   -1.7330   -0.2170 n         1 MOL     -0.392709
     42 C13        -3.8530   -2.0950   -0.2600 c3        1 MOL      0.009861
     43 C14        -3.3000   -2.7700    1.0300 c         1 MOL      0.680375
     44 O6         -3.4390   -2.2300    2.0930 o         1 MOL     -0.481976
     45 C15        -3.0540   -0.8350   -0.6220 c3        1 MOL     -0.190984
     46 C16        -1.5670   -1.0760   -0.8610 c         1 MOL      0.577557
     47 O7         -1.0230   -1.0440   -1.9670 o         1 MOL     -0.678019
     48 O8         -0.8250   -1.1470    0.1810 o         1 MOL     -0.678019
     49 H21        -5.4680   -0.8020   -0.5590 hn        1 MOL      0.192829
     50 H22        -3.7410   -2.7670   -1.1130 h1        1 MOL      0.030255
     51 H23        -3.1240   -0.1580    0.2230 hc        1 MOL      0.169356
     52 H24        -3.3840   -0.4030   -1.5690 hc        1 MOL      0.169356
     53 N5         -2.6570   -3.9490    0.8280 n         1 MOL     -0.372161
     54 C17        -1.9570   -4.8010    1.8030 c3        1 MOL     -0.034031
     55 C18        -1.0660   -4.1000    2.8440 c         1 MOL      0.458950
     56 O9         -0.7670   -4.6870    3.8550 o         1 MOL     -0.545788
     57 H25        -2.7180   -4.2830   -0.1220 hn        1 MOL      0.225725
     58 H26        -1.3660   -5.5000    1.2170 h1        1 MOL      0.070640
     59 H27        -2.6810   -5.4160    2.3540 h1        1 MOL      0.070640
     60 N6         -0.6210   -2.9010    2.5520 n         1 MOL     -0.120257
     61 C19         0.0360   -2.0510    3.5140 c3        1 MOL     -0.043048
     62 C20        -0.5030   -0.5890    3.6480 c         1 MOL      0.470469
     63 O10        -0.0780    0.0730    4.5330 o         1 MOL     -0.533937
     64 C21         1.5850   -2.1010    3.3790 c3        1 MOL     -0.273058
     65 C22         1.9680   -1.2800    2.1390 c         1 MOL      0.477496
     66 N7          1.7850   -0.0160    2.1010 n         1 MOL     -0.255735
     67 O11         2.3540   -1.7910    1.0320 o         1 MOL     -0.667396
     68 H28        -0.6590   -2.5560    1.6120 hn        1 MOL      0.244283
     69 H29        -0.1950   -2.3910    4.5300 h1        1 MOL      0.122945
     70 H30         1.9360   -3.1330    3.3170 hc        1 MOL      0.120072
     71 H31         2.0650   -1.6780    4.2610 hc        1 MOL      0.120072
     72 H32         1.6270    0.6130    2.8690 hn        1 MOL      0.227552
     73 H33         1.9700    0.3250    1.1640 hn        1 MOL      0.227552
     74 N8         -1.4510   -0.2320    2.7470 n         1 MOL      0.032456
     75 C23        -2.1600    1.0410    2.8220 c3        1 MOL     -0.208071
     76 C24        -1.6130    2.1500    1.9450 c         1 MOL      0.519423
     77 O12        -1.6950    3.3090    2.2570 o         1 MOL     -0.527832
     78 H34        -1.6860   -0.9190    2.0350 hn        1 MOL     -0.237121
     79 H35        -2.1280    1.4820    3.8100 h1        1 MOL      0.123863
     80 H36        -3.2050    0.8420    2.5870 h1        1 MOL      0.123863
     81 N9         -0.9350    1.7260    0.8450 n         1 MOL     -0.102641
     82 C25        -0.1630    2.6550   -0.0110 c3        1 MOL      0.156983
     83 C26         1.2110    2.1140   -0.4620 c         1 MOL      0.152881
     84 O13         1.4090    0.9330   -0.5940 o         1 MOL     -0.339075
     85 C27        -0.9750    3.0520   -1.3110 c3        1 MOL     -0.057255
     86 C28        -2.0740    4.1120   -1.1560 ca        1 MOL     -0.053776
     87 C29        -1.8060    5.4370   -0.7560 ca        1 MOL     -0.096842
     88 C30        -3.3660    3.6780   -1.4640 ca        1 MOL     -0.096842
     89 C31        -2.8830    6.3650   -0.5350 ca        1 MOL     -0.327231
     90 C32        -4.4750    4.6010   -1.2930 ca        1 MOL     -0.327231
     91 C33        -4.2130    5.8760   -0.6800 ca        1 MOL      0.425396
     92 O14        -5.2780    6.7100   -0.5650 oh        1 MOL     -0.541340
     93 H37        -0.9420    0.7190    0.7370 hn        1 MOL     -0.163706
     94 H38         0.0460    3.5650    0.5430 h1        1 MOL      0.021241
     95 H39        -1.3860    2.1340   -1.7250 hc        1 MOL      0.043957
     96 H40        -0.3060    3.4480   -2.0750 hc        1 MOL      0.043957
     97 H41        -0.8160    5.8500   -0.6130 ha        1 MOL      0.119399
     98 H42        -3.7190    2.7390   -1.8840 ha        1 MOL      0.119399
     99 H43        -2.7910    7.3930   -0.1950 ha        1 MOL      0.178895
    100 H44        -5.4830    4.2830   -1.5040 ha        1 MOL      0.178895
    101 H45        -6.1230    6.2540   -0.7130 ho        1 MOL      0.405564
    102 N10         2.2500    2.9790   -0.4580 n         1 MOL     -0.189006
    103 C34         3.6510    2.6950   -0.7330 c3        1 MOL     -0.135394
    104 C35         4.3250    2.0720    0.4960 c         1 MOL      0.193922
    105 O15         5.1980    1.2020    0.4490 o         1 MOL     -0.341061
    106 C36         4.3560    4.0190   -1.2110 c3        1 MOL      0.029415
    107 C37         3.6270    4.6170   -2.3960 c3        1 MOL      0.013903
    108 C38         5.7700    3.7070   -1.6220 c3        1 MOL     -0.359683
    109 C39         3.2420    3.7160   -3.5830 c3        1 MOL     -0.234028
    110 H46         2.0850    3.8780   -0.0210 hn        1 MOL      0.237200
    111 H47         3.7110    2.0660   -1.6200 h1        1 MOL      0.168307
    112 H48         4.4610    4.7870   -0.4410 hc        1 MOL      0.013047
    113 H49         4.1820    5.4650   -2.7960 hc        1 MOL      0.029182
    114 H50         2.7040    5.0790   -2.0440 hc        1 MOL      0.029182
    115 H51         6.3680    3.5320   -0.7300 hc        1 MOL      0.125748
    116 H52         5.6950    2.8790   -2.3290 hc        1 MOL      0.125748
    117 H53         6.2100    4.5310   -2.1810 hc        1 MOL      0.125748
    118 H54         2.9780    4.4100   -4.3820 hc        1 MOL      0.067253
    119 H55         4.0470    3.0080   -3.8060 hc        1 MOL      0.067253
    120 H56         2.3980    3.0770   -3.3470 hc        1 MOL      0.067253
    121 N11         3.9720    2.5650    1.6800 n         1 MOL     -0.173778
    122 C40         4.3910    2.0340    2.9220 c3        1 MOL     -0.078896
    123 C41         5.9200    1.9870    3.2300 c         1 MOL      0.361684
    124 O16         6.3440    1.2430    4.0980 o         1 MOL     -0.461795
    125 C42         3.4810    2.7640    4.0090 c3        1 MOL      0.075064
    126 O17         2.0900    2.6260    3.6420 oh        1 MOL     -0.593451
    127 H57         3.3200    3.3400    1.6490 hn        1 MOL      0.266083
    128 H58         3.9940    1.0210    3.0120 h1        1 MOL      0.131462
    129 H59         3.6620    3.8310    3.9080 h1        1 MOL      0.061498
    130 H60         3.6490    2.3700    5.0090 h1        1 MOL      0.061498
    131 H61         1.5300    2.9260    4.3570 ho        1 MOL      0.433109
    132 N12         6.7790    2.7220    2.4820 n         1 MOL     -0.225397
    133 C43         8.1620    2.5410    2.2840 c3        1 MOL      0.241766
    134 C44         8.6320    1.0930    1.8670 c         1 MOL      0.517767
    135 O18         9.6870    0.6640    2.2420 o         1 MOL     -0.526658
    136 C45         8.9150    3.1400    3.4540 c3        1 MOL     -0.436265
    137 H62         6.3390    3.4850    1.9770 hn        1 MOL      0.204558
    138 H63         8.4200    3.0670    1.3690 h1        1 MOL      0.003255
    139 H64         8.3080    3.9940    3.7320 hc        1 MOL      0.118613
    140 H65         8.8260    2.4230    4.2780 hc        1 MOL      0.118613
    141 H66         9.9880    3.1890    3.2650 hc        1 MOL      0.118613
    142 N13         7.7830    0.4140    1.0900 n         1 MOL     -0.404037
    143 C46         7.8430   -1.0330    0.8270 c3        1 MOL      0.267298
    144 C47         7.5090   -1.4130   -0.5950 c         1 MOL      0.535528
    145 O19         6.8910   -0.6780   -1.3170 o         1 MOL     -0.493226
    146 C48         7.0720   -1.7240    1.9360 c3        1 MOL     -0.401658
    147 H67         6.9840    0.9790    0.8270 hn        1 MOL      0.053344
    148 H68         8.9050   -1.2750    0.8470 h1        1 MOL      0.001885
    149 H69         7.4500   -1.4550    2.9220 hc        1 MOL      0.126919
    150 H70         6.0530   -1.3260    1.9330 hc        1 MOL      0.126919
    151 H71         7.0580   -2.8100    1.8230 hc        1 MOL      0.126919
    152 N14         7.7840   -2.6750   -1.0010 n         1 MOL     -0.624148
    153 C49         7.5610   -3.0760   -2.3990 c3        1 MOL     -0.113580
    154 C50         8.2730   -2.2540   -3.4890 c         1 MOL      0.581878
    155 O20         7.9260   -2.3490   -4.6530 o         1 MOL     -0.537752
    156 C51         6.0520   -3.3220   -2.5940 c3        1 MOL      0.149862
    157 C52         5.4030   -4.1040   -1.4090 c3        1 MOL      0.047261
    158 C53         3.9100   -4.4150   -1.7430 c         1 MOL      0.539427
    159 O21         3.4680   -5.5450   -2.1210 o         1 MOL     -0.670742
    160 O22         3.1760   -3.4090   -1.7700 o         1 MOL     -0.670742
    161 H72         8.1640   -3.2570   -0.2700 hn        1 MOL      0.345004
    162 H73         8.0590   -4.0410   -2.4990 h1        1 MOL      0.111863
    163 H74         5.9740   -3.9760   -3.4580 hc        1 MOL     -0.014334
    164 H75         5.5580   -2.3940   -2.8860 hc        1 MOL     -0.014334
    165 H76         5.4120   -3.4630   -0.5340 hc        1 MOL     -0.035237
    166 H77         5.8400   -5.0750   -1.1610 hc        1 MOL     -0.035237
    167 N15         9.2960   -1.5070   -3.1650 n         1 MOL     -0.400165
    168 C54        10.0240   -0.5500   -4.0970 c3        1 MOL     -0.028551
    169 H78         9.4390   -0.4150   -5.0070 h1        1 MOL      0.064414
    170 H79        10.1520    0.4130   -3.6020 h1        1 MOL      0.064414
    171 H80        11.0000   -0.9610   -4.3510 h1        1 MOL      0.064414
    172 H81         9.5050   -1.3190   -2.1920 hn        1 MOL      0.266863
    173 Ca1         1.3620   -1.6100   -1.4500 Ca        1 MOL      1.733932
    174 O23         2.2010    0.0510   -3.3710 oh        1 MOL     -0.840259
    175 H82         1.7020    0.2920   -4.1580 ho        1 MOL      0.419350
    176 H83         2.6450    0.8650   -3.1240 ho        1 MOL      0.419350
    177 O24         0.5690   -3.8200   -0.4970 oh        1 MOL     -0.840259
    178 H84         0.1920   -4.3700   -1.1870 ho        1 MOL      0.419350
    179 H85         1.0140   -4.4340    0.0860 ho        1 MOL      0.419350
    180 O25         3.9720   -0.7740   -1.3030 oh        1 MOL     -0.840259
    181 H86         4.6470   -0.3490   -0.7760 ho        1 MOL      0.419350
    182 H87         4.3670   -1.6040   -1.5710 ho        1 MOL      0.419350
    183 O26         0.9980   -2.9670   -3.9690 oh        1 MOL     -0.840259
    184 H88         0.9020   -3.9270   -3.9850 ho        1 MOL      0.419350
    185 H89         1.1720   -2.7340   -4.8770 ho        1 MOL      0.419350
@<TRIPOS>BOND
     1    1    2 1   
     2    1    4 1   
     3    1    5 1   
     4    1    6 1   
     5    2    3 2   
     6    2    7 1   
     7    7    8 1   
     8    7   15 1   
     9    8    9 1   
    10    8   11 1   
    11    8   16 1   
    12    9   10 2   
    13    9   19 1   
    14   11   12 1   
    15   11   17 1   
    16   11   18 1   
    17   12   13 1   
    18   12   14 1   
    19   19   20 1   
    20   19   28 1   
    21   20   21 1   
    22   20   23 1   
    23   20   29 1   
    24   21   22 2   
    25   21   41 1   
    26   23   24 1   
    27   23   30 1   
    28   23   31 1   
    29   24   25 1   
    30   24   32 1   
    31   24   33 1   
    32   25   26 1   
    33   25   34 1   
    34   25   35 1   
    35   26   27 1   
    36   26   36 1   
    37   26   37 1   
    38   27   38 1   
    39   27   39 1   
    40   27   40 1   
    41   41   42 1   
    42   41   49 1   
    43   42   43 1   
    44   42   45 1   
    45   42   50 1   
    46   43   44 2   
    47   43   53 1   
    48   45   46 1   
    49   45   51 1   
    50   45   52 1   
    51   46   47 1   
    52   46   48 1   
    53   53   54 1   
    54   53   57 1   
    55   54   55 1   
    56   54   58 1   
    57   54   59 1   
    58   55   56 2   
    59   55   60 1   
    60   60   61 1   
    61   60   68 1   
    62   61   62 1   
    63   61   64 1   
    64   61   69 1   
    65   62   63 2   
    66   62   74 1   
    67   64   65 1   
    68   64   70 1   
    69   64   71 1   
    70   65   66 1   
    71   65   67 2   
    72   66   72 1   
    73   66   73 1   
    74   74   75 1   
    75   74   78 1   
    76   75   76 1   
    77   75   79 1   
    78   75   80 1   
    79   76   77 2   
    80   76   81 1   
    81   81   82 1   
    82   81   93 1   
    83   82   83 1   
    84   82   85 1   
    85   82   94 1   
    86   83   84 2   
    87   83  102 1   
    88   85   86 1   
    89   85   95 1   
    90   85   96 1   
    91   86   87 ar  
    92   86   88 ar  
    93   87   89 ar  
    94   87   97 1   
    95   88   90 ar  
    96   88   98 1   
    97   89   91 ar  
    98   89   99 1   
    99   90   91 ar  
   100   90  100 1   
   101   91   92 1   
   102   92  101 1   
   103  102  103 1   
   104  102  110 1   
   105  103  104 1   
   106  103  106 1   
   107  103  111 1   
   108  104  105 2   
   109  104  121 1   
   110  106  107 1   
   111  106  108 1   
   112  106  112 1   
   113  107  109 1   
   114  107  113 1   
   115  107  114 1   
   116  108  115 1   
   117  108  116 1   
   118  108  117 1   
   119  109  118 1   
   120  109  119 1   
   121  109  120 1   
   122  121  122 1   
   123  121  127 1   
   124  122  123 1   
   125  122  125 1   
   126  122  128 1   
   127  123  124 2   
   128  123  132 1   
   129  125  126 1   
   130  125  129 1   
   131  125  130 1   
   132  126  131 1   
   133  132  133 1   
   134  132  137 1   
   135  133  134 1   
   136  133  136 1   
   137  133  138 1   
   138  134  135 2   
   139  134  142 1   
   140  136  139 1   
   141  136  140 1   
   142  136  141 1   
   143  142  143 1   
   144  142  147 1   
   145  143  144 1   
   146  143  146 1   
   147  143  148 1   
   148  144  145 2   
   149  144  152 1   
   150  146  149 1   
   151  146  150 1   
   152  146  151 1   
   153  152  153 1   
   154  152  161 1   
   155  153  154 1   
   156  153  156 1   
   157  153  162 1   
   158  154  155 2   
   159  154  167 1   
   160  156  157 1   
   161  156  163 1   
   162  156  164 1   
   163  157  158 1   
   164  157  165 1   
   165  157  166 1   
   166  158  159 1   
   167  158  160 1   
   168  167  168 1   
   169  167  172 1   
   170  168  169 1   
   171  168  170 1   
   172  168  171 1   
   173  174  175 1   
   174  174  176 1   
   175  177  178 1   
   176  177  179 1   
   177  180  181 1   
   178  180  182 1   
   179  183  184 1   
   180  183  185 1   
@<TRIPOS>SUBSTRUCTURE
     1 MOL         1 TEMP              0 ****  ****    0 ROOT
