@<TRIPOS>MOLECULE
MOL
  192   187     1     0     0
SMALL
resp


@<TRIPOS>ATOM
      1 C1          9.2580    0.9840    1.4130 c3        1 MOL     -0.550340
      2 C2          7.9560    0.6540    0.5720 c         1 MOL      0.646266
      3 O1          6.9250    0.3790    1.1210 o         1 MOL     -0.638484
      4 H1         10.1110    1.0790    0.7390 hc        1 MOL      0.140425
      5 H2          9.1160    1.9210    1.9510 hc        1 MOL      0.140425
      6 H3          9.4460    0.1810    2.1250 hc        1 MOL      0.140425
      7 N1          8.2060    0.3040   -0.6460 n         1 MOL     -0.308658
      8 C3          7.2500   -0.3300   -1.6310 c3        1 MOL     -0.431885
      9 C4          7.0120   -1.8540   -1.3860 c         1 MOL      0.639537
     10 O2          7.0930   -2.7280   -2.2200 o         1 MOL     -0.483795
     11 C5          7.5760    0.0330   -3.0870 c3        1 MOL     -0.257807
     12 C6          8.9780   -0.2510   -3.6870 c         1 MOL      0.736701
     13 O3          9.9750   -0.5720   -2.9520 o         1 MOL     -0.650752
     14 O4          9.1290    0.1080   -4.8680 o         1 MOL     -0.650752
     15 H4          9.1760    0.3490   -0.9570 hn        1 MOL      0.254819
     16 H5          6.2840    0.0840   -1.3330 h1        1 MOL      0.300551
     17 H6          7.3910    1.1040   -3.1930 hc        1 MOL      0.119789
     18 H7          6.8600   -0.4960   -3.7190 hc        1 MOL      0.119789
     19 N2          6.7310   -2.1860   -0.0830 n         1 MOL     -0.288439
     20 C7          6.3270   -3.5560    0.3120 c3        1 MOL     -0.092907
     21 C8          4.8220   -3.6870    0.1280 c         1 MOL      0.651013
     22 O5          4.4000   -4.6860   -0.4510 o         1 MOL     -0.577605
     23 C9          6.7870   -3.8850    1.7530 c3        1 MOL     -0.015610
     24 C10         8.2710   -3.9990    1.7660 c3        1 MOL     -0.008730
     25 C11         8.7330   -3.8400    3.2330 c3        1 MOL      0.027442
     26 C12        10.2300   -3.9910    3.3960 c3        1 MOL      0.106793
     27 N3         10.5300   -4.0730    4.8470 n4        1 MOL     -0.267866
     28 H8          6.6530   -1.3990    0.5420 hn        1 MOL      0.225287
     29 H9          6.9280   -4.2440   -0.2700 h1        1 MOL      0.089884
     30 H10         6.2960   -4.8020    2.0890 hc        1 MOL      0.032844
     31 H11         6.4800   -3.1920    2.5400 hc        1 MOL      0.032844
     32 H12         8.7710   -3.1990    1.2170 hc        1 MOL      0.030931
     33 H13         8.6230   -4.9880    1.4410 hc        1 MOL      0.030931
     34 H14         8.0790   -4.4090    3.9010 hc        1 MOL     -0.011269
     35 H15         8.6380   -2.8090    3.5660 hc        1 MOL     -0.011269
     36 H16        10.7360   -3.0980    3.0370 hx        1 MOL      0.052626
     37 H17        10.5860   -4.7870    2.7320 hx        1 MOL      0.052626
     38 H18        11.5240   -3.9660    5.0030 hn        1 MOL      0.255229
     39 H19        10.1120   -3.2750    5.3080 hn        1 MOL      0.255229
     40 H20        10.1270   -4.8740    5.3090 hn        1 MOL      0.255229
     41 N4          3.9110   -2.8270    0.5200 n         1 MOL     -0.549814
     42 C13         3.8570   -1.5030    1.1520 c3        1 MOL      0.227400
     43 C14         3.8070   -0.2660    0.3010 c         1 MOL     -0.014889
     44 O6          3.5140   -0.4090   -0.8680 o         1 MOL     -0.400309
     45 C15         2.6170   -1.5230    2.1390 c3        1 MOL     -0.303608
     46 C16         1.3080   -2.0260    1.4960 c         1 MOL      0.708405
     47 O7          0.6940   -1.1540    0.8110 o         1 MOL     -0.647627
     48 O8          0.9220   -3.1900    1.7030 o         1 MOL     -0.647627
     49 H21         3.0510   -3.1200    0.0800 hn        1 MOL      0.360876
     50 H22         4.6730   -1.4790    1.8800 h1        1 MOL      0.065571
     51 H23         2.5500   -0.4930    2.5090 hc        1 MOL      0.048451
     52 H24         2.8640   -2.0420    3.0620 hc        1 MOL      0.048451
     53 N5          4.1040    0.8480    0.8870 n         1 MOL     -0.120183
     54 C17         4.2690    2.1420    0.2710 c3        1 MOL     -0.204769
     55 C18         3.0910    2.5930   -0.5570 c         1 MOL      0.740799
     56 O9          1.9400    2.1430   -0.4920 o         1 MOL     -0.618261
     57 H25         4.4150    0.7620    1.8440 hn        1 MOL      0.273057
     58 H26         5.1620    2.1240   -0.3510 h1        1 MOL      0.104375
     59 H27         4.3730    2.8600    1.0800 h1        1 MOL      0.104375
     60 N6          3.3720    3.5560   -1.5080 n         1 MOL     -0.658317
     61 C19         2.3740    4.2520   -2.3570 c3        1 MOL      0.520129
     62 C20         2.8060    5.6880   -2.6920 c         1 MOL      0.265669
     63 O10         4.0420    5.9330   -2.8350 o         1 MOL     -0.498439
     64 C21         2.0580    3.5190   -3.6800 c3        1 MOL     -0.364234
     65 C22         1.4290    2.1140   -3.4620 c         1 MOL      0.696429
     66 O11         0.4320    1.9700   -2.7500 o         1 MOL     -0.693081
     67 O12         1.9400    1.1020   -4.0870 o         1 MOL     -0.693081
     68 H28         4.3090    3.9350   -1.5440 hn        1 MOL      0.306732
     69 H29         1.4150    4.2930   -1.8410 h1        1 MOL     -0.040883
     70 H30         2.8880    3.4280   -4.3780 hc        1 MOL      0.103991
     71 H31         1.3860    4.1410   -4.2700 hc        1 MOL      0.103991
     72 N7          1.8950    6.6800   -2.8680 n         1 MOL     -0.282819
     73 C23         0.4460    6.5680   -2.8460 c3        1 MOL     -0.192697
     74 C24        -0.0910    6.2750   -1.3730 c         1 MOL      0.680545
     75 O13         0.5730    6.6470   -0.4100 o         1 MOL     -0.546949
     76 H32         2.2950    7.5820   -3.0550 hn        1 MOL      0.291102
     77 H33         0.2050    5.7230   -3.4860 h1        1 MOL      0.092583
     78 H34        -0.0240    7.5080   -3.1290 h1        1 MOL      0.092583
     79 N8         -1.1740    5.5720   -1.2170 n         1 MOL     -0.528566
     80 C25        -1.8090    5.2430    0.0770 c3        1 MOL     -0.398258
     81 C26        -1.3140    3.9570    0.7420 c         1 MOL      1.051413
     82 O14        -0.9120    3.0170    0.0590 o         1 MOL     -0.652503
     83 C27        -3.3170    5.1280    0.0590 c3        1 MOL      0.478497
     84 C28        -3.9430    4.2020   -0.9670 c3        1 MOL     -0.199503
     85 O15        -3.7580    6.4090   -0.3170 oh        1 MOL     -0.676969
     86 H35        -1.6030    5.2030   -2.0610 hn        1 MOL      0.313909
     87 H36        -1.5550    6.0410    0.7770 h1        1 MOL      0.147725
     88 H37        -3.7220    4.8360    1.0190 h1        1 MOL      0.007352
     89 H38        -3.0650    6.8420   -0.8270 ho        1 MOL      0.411410
     90 H39        -4.0330    4.5800   -1.9790 hc        1 MOL      0.053012
     91 H40        -3.3830    3.2630   -0.9900 hc        1 MOL      0.053012
     92 H41        -4.9410    3.9440   -0.5870 hc        1 MOL      0.053012
     93 N9         -1.3440    3.8880    2.0800 n         1 MOL     -0.759048
     94 C29        -1.0500    2.6920    2.9450 c3        1 MOL      0.038940
     95 C30        -1.8820    1.3930    2.6320 c         1 MOL      0.513238
     96 O16        -1.7450    0.8320    1.5650 o         1 MOL     -0.599603
     97 C31         0.4600    2.4370    3.1900 c3        1 MOL      0.157510
     98 C32         1.1380    3.5440    4.0390 c3        1 MOL      0.030538
     99 C33         0.7610    1.0300    3.7900 c3        1 MOL     -0.420985
    100 C34         0.8060    3.5860    5.5220 c3        1 MOL     -0.210207
    101 H42        -1.6390    4.7280    2.5510 hn        1 MOL      0.323007
    102 H43        -1.5070    2.9970    3.8850 h1        1 MOL      0.082700
    103 H44         0.9000    2.4270    2.2000 hc        1 MOL     -0.043247
    104 H45         0.9660    4.4680    3.4900 hc        1 MOL      0.020827
    105 H46         2.2100    3.3960    3.9400 hc        1 MOL      0.020827
    106 H47         1.8160    1.0020    4.0590 hc        1 MOL      0.113618
    107 H48         0.1360    0.7820    4.6540 hc        1 MOL      0.113618
    108 H49         0.5330    0.3420    2.9700 hc        1 MOL      0.113618
    109 H50         1.1880    4.4950    5.9830 hc        1 MOL      0.053489
    110 H51        -0.2700    3.5510    5.6750 hc        1 MOL      0.053489
    111 H52         1.2610    2.6890    5.9600 hc        1 MOL      0.053489
    112 N10        -2.5940    0.8870    3.6570 n         1 MOL     -0.320494
    113 C35        -3.1760   -0.4440    3.7270 c3        1 MOL     -0.053731
    114 C36        -4.4600   -0.6670    3.0920 c         1 MOL      0.343680
    115 O17        -4.9990   -1.8240    3.0050 o         1 MOL     -0.537820
    116 C37        -3.0140   -1.0520    5.1690 c3        1 MOL      0.414910
    117 C38        -3.9490   -0.4250    6.1930 c3        1 MOL     -0.261946
    118 O18        -1.6300   -0.8830    5.5680 oh        1 MOL     -0.638558
    119 H53        -2.6990    1.5220    4.4430 hn        1 MOL      0.218932
    120 H54        -2.5380   -1.0930    3.1230 h1        1 MOL      0.110016
    121 H55        -3.2400   -2.1100    5.0970 h1        1 MOL      0.003947
    122 H56        -1.0810   -1.4620    5.0320 ho        1 MOL      0.407180
    123 H57        -4.9590   -0.5510    5.8170 hc        1 MOL      0.072666
    124 H58        -3.9250   -0.9650    7.1440 hc        1 MOL      0.072666
    125 H59        -3.8400    0.6460    6.3170 hc        1 MOL      0.072666
    126 N11        -5.1020    0.3570    2.5010 n         1 MOL      0.015250
    127 C39        -6.4340    0.2370    1.8350 c3        1 MOL     -0.415812
    128 C40        -6.2970   -0.5240    0.4630 c         1 MOL      0.660200
    129 O19        -5.7130    0.0420   -0.4790 o         1 MOL     -0.546382
    130 C41        -7.0950    1.6200    1.6700 c3        1 MOL      0.631575
    131 C42        -8.5840    1.4130    1.5070 c3        1 MOL     -0.545869
    132 O20        -6.7720    2.4640    2.7040 oh        1 MOL     -0.617655
    133 H60        -4.8810    1.3230    2.6670 hn        1 MOL      0.109553
    134 H61        -7.0570   -0.4010    2.4630 h1        1 MOL      0.082370
    135 H62        -6.7240    2.0950    0.7610 h1        1 MOL     -0.011217
    136 H63        -7.1450    2.1320    3.5170 ho        1 MOL      0.379555
    137 H64        -8.7370    0.7360    0.6660 hc        1 MOL      0.130341
    138 H65        -8.9300    0.9760    2.4440 hc        1 MOL      0.130341
    139 H66        -9.0840    2.3540    1.2880 hc        1 MOL      0.130341
    140 N12        -6.8230   -1.7610    0.5210 n         1 MOL     -0.423227
    141 C43        -7.0370   -2.5300   -0.7210 c3        1 MOL      0.091995
    142 C44        -5.7130   -2.6400   -1.5280 c         1 MOL      0.571952
    143 O21        -5.6490   -2.1880   -2.6800 o         1 MOL     -0.534470
    144 C45        -8.2470   -2.0490   -1.4450 c3        1 MOL     -0.223705
    145 C46        -9.5230   -2.1750   -0.6510 c3        1 MOL      0.002672
    146 C47       -10.7680   -1.8570   -1.5450 c3        1 MOL     -0.062392
    147 C48       -12.1610   -1.9130   -0.7200 c3        1 MOL      0.112120
    148 N13       -13.2960   -1.5820   -1.6410 n4        1 MOL     -0.230350
    149 H67        -7.1730   -2.1440    1.3780 hn        1 MOL      0.293075
    150 H68        -7.3470   -3.5300   -0.4030 h1        1 MOL      0.055891
    151 H69        -8.2450   -2.6380   -2.3600 hc        1 MOL      0.090761
    152 H70        -8.0920   -0.9890   -1.6720 hc        1 MOL      0.090761
    153 H71        -9.4930   -1.4160    0.1360 hc        1 MOL      0.021440
    154 H72        -9.5740   -3.2190   -0.3410 hc        1 MOL      0.021440
    155 H73       -10.8740   -2.6690   -2.2700 hc        1 MOL      0.056681
    156 H74       -10.6510   -0.8780   -1.9920 hc        1 MOL      0.056681
    157 H75       -12.1600   -1.2440    0.1360 hx        1 MOL      0.035708
    158 H76       -12.3040   -2.9150   -0.3280 hx        1 MOL      0.035708
    159 H77       -13.2990   -2.2590   -2.3950 hn        1 MOL      0.204554
    160 H78       -14.1370   -1.8190   -1.1280 hn        1 MOL      0.204554
    161 H79       -13.3010   -0.6070   -1.9220 hn        1 MOL      0.204554
    162 N14        -4.5810   -3.2020   -1.0110 n         1 MOL     -0.625583
    163 C49        -3.2560   -3.2460   -1.7040 c3        1 MOL      0.629456
    164 C50        -2.0790   -2.8000   -0.8570 c         1 MOL      0.099888
    165 O22        -1.5180   -1.8080   -1.2970 o         1 MOL     -0.522515
    166 C51        -2.9380   -4.5360   -2.4570 c3        1 MOL     -0.236243
    167 C52        -3.9140   -4.8400   -3.5230 c3        1 MOL     -0.138400
    168 C53        -3.5970   -6.0490   -4.3250 c         1 MOL      0.650496
    169 O23        -4.2270   -7.0970   -4.0240 o         1 MOL     -0.604477
    170 O24        -2.6260   -6.1140   -5.0930 o         1 MOL     -0.604477
    171 H80        -4.7190   -3.6800   -0.1420 hn        1 MOL      0.269292
    172 H81        -3.2600   -2.5330   -2.5280 h1        1 MOL     -0.016194
    173 H82        -2.9530   -5.4840   -1.9070 hc        1 MOL      0.105676
    174 H83        -1.9470   -4.3750   -2.9030 hc        1 MOL      0.105676
    175 H84        -3.9080   -4.0500   -4.2760 hc        1 MOL      0.019549
    176 H85        -4.9210   -4.8480   -3.1240 hc        1 MOL      0.019549
    177 N15        -1.6910   -3.3640    0.2820 n         1 MOL     -0.162479
    178 C54        -2.2170   -4.6290    0.8230 c3        1 MOL     -0.100740
    179 H86        -2.9790   -5.0220    0.1500 h1        1 MOL      0.055176
    180 H87        -1.4050   -5.3510    0.9140 h1        1 MOL      0.055176
    181 H88        -2.6570   -4.4510    1.8040 h1        1 MOL      0.055176
    182 H89        -0.9240   -2.9010    0.7360 hn        1 MOL      0.257615
    183 Ca1        -0.4000    0.5720   -0.6930 Ca        1 MOL      1.780135
    184 O25        -1.8390    0.0610   -3.5360 oh        1 MOL     -0.874852
    185 H90        -2.3810    0.1590   -4.3170 ho        1 MOL      0.433489
    186 H91        -1.1900   -0.6010   -3.7800 ho        1 MOL      0.433489
    187 O26        -2.9950    0.6050   -1.0740 oh        1 MOL     -0.874852
    188 H92        -2.9050    0.5400   -2.0170 ho        1 MOL      0.433489
    189 H93        -3.9080    0.3600   -0.9030 ho        1 MOL      0.433489
    190 O27         1.1790   -0.8050   -2.4600 oh        1 MOL     -0.874852
    191 H94         1.3320   -0.1910   -3.1750 ho        1 MOL      0.433489
    192 H95         2.0390   -0.8970   -2.0400 ho        1 MOL      0.433489
@<TRIPOS>BOND
     1    1    2 1   
     2    1    4 1   
     3    1    5 1   
     4    1    6 1   
     5    2    3 2   
     6    2    7 1   
     7    7    8 1   
     8    7   15 1   
     9    8    9 1   
    10    8   11 1   
    11    8   16 1   
    12    9   10 2   
    13    9   19 1   
    14   11   12 1   
    15   11   17 1   
    16   11   18 1   
    17   12   13 1   
    18   12   14 1   
    19   19   20 1   
    20   19   28 1   
    21   20   21 1   
    22   20   23 1   
    23   20   29 1   
    24   21   22 2   
    25   21   41 1   
    26   23   24 1   
    27   23   30 1   
    28   23   31 1   
    29   24   25 1   
    30   24   32 1   
    31   24   33 1   
    32   25   26 1   
    33   25   34 1   
    34   25   35 1   
    35   26   27 1   
    36   26   36 1   
    37   26   37 1   
    38   27   38 1   
    39   27   39 1   
    40   27   40 1   
    41   41   42 1   
    42   41   49 1   
    43   42   43 1   
    44   42   45 1   
    45   42   50 1   
    46   43   44 2   
    47   43   53 1   
    48   45   46 1   
    49   45   51 1   
    50   45   52 1   
    51   46   47 1   
    52   46   48 1   
    53   53   54 1   
    54   53   57 1   
    55   54   55 1   
    56   54   58 1   
    57   54   59 1   
    58   55   56 2   
    59   55   60 1   
    60   60   61 1   
    61   60   68 1   
    62   61   62 1   
    63   61   64 1   
    64   61   69 1   
    65   62   63 2   
    66   62   72 1   
    67   64   65 1   
    68   64   70 1   
    69   64   71 1   
    70   65   66 1   
    71   65   67 1   
    72   72   73 1   
    73   72   76 1   
    74   73   74 1   
    75   73   77 1   
    76   73   78 1   
    77   74   75 2   
    78   74   79 1   
    79   79   80 1   
    80   79   86 1   
    81   80   81 1   
    82   80   83 1   
    83   80   87 1   
    84   81   82 2   
    85   81   93 1   
    86   83   84 1   
    87   83   85 1   
    88   83   88 1   
    89   84   90 1   
    90   84   91 1   
    91   84   92 1   
    92   85   89 1   
    93   93   94 1   
    94   93  101 1   
    95   94   95 1   
    96   94   97 1   
    97   94  102 1   
    98   95   96 2   
    99   95  112 1   
   100   97   98 1   
   101   97   99 1   
   102   97  103 1   
   103   98  100 1   
   104   98  104 1   
   105   98  105 1   
   106   99  106 1   
   107   99  107 1   
   108   99  108 1   
   109  100  109 1   
   110  100  110 1   
   111  100  111 1   
   112  112  113 1   
   113  112  119 1   
   114  113  114 1   
   115  113  116 1   
   116  113  120 1   
   117  114  115 2   
   118  114  126 1   
   119  116  117 1   
   120  116  118 1   
   121  116  121 1   
   122  117  123 1   
   123  117  124 1   
   124  117  125 1   
   125  118  122 1   
   126  126  127 1   
   127  126  133 1   
   128  127  128 1   
   129  127  130 1   
   130  127  134 1   
   131  128  129 2   
   132  128  140 1   
   133  130  131 1   
   134  130  132 1   
   135  130  135 1   
   136  131  137 1   
   137  131  138 1   
   138  131  139 1   
   139  132  136 1   
   140  140  141 1   
   141  140  149 1   
   142  141  142 1   
   143  141  144 1   
   144  141  150 1   
   145  142  143 2   
   146  142  162 1   
   147  144  145 1   
   148  144  151 1   
   149  144  152 1   
   150  145  146 1   
   151  145  153 1   
   152  145  154 1   
   153  146  147 1   
   154  146  155 1   
   155  146  156 1   
   156  147  148 1   
   157  147  157 1   
   158  147  158 1   
   159  148  159 1   
   160  148  160 1   
   161  148  161 1   
   162  162  163 1   
   163  162  171 1   
   164  163  164 1   
   165  163  166 1   
   166  163  172 1   
   167  164  165 2   
   168  164  177 1   
   169  166  167 1   
   170  166  173 1   
   171  166  174 1   
   172  167  168 1   
   173  167  175 1   
   174  167  176 1   
   175  168  169 1   
   176  168  170 1   
   177  177  178 1   
   178  177  182 1   
   179  178  179 1   
   180  178  180 1   
   181  178  181 1   
   182  184  185 1   
   183  184  186 1   
   184  187  188 1   
   185  187  189 1   
   186  190  191 1   
   187  190  192 1   
@<TRIPOS>SUBSTRUCTURE
     1 MOL         1 TEMP              0 ****  ****    0 ROOT
