@<TRIPOS>MOLECULE
MOL
  188   182     1     0     0
SMALL
resp


@<TRIPOS>ATOM
      1 C1          5.1890   -1.4590    5.6590 c3        1 MOL     -0.489967
      2 C2          4.4500   -0.6840    4.4670 c         1 MOL      0.704165
      3 O1          3.5280    0.0910    4.6910 o         1 MOL     -0.543001
      4 H1          5.2260   -0.8190    6.5400 hc        1 MOL      0.120584
      5 H2          4.6410   -2.3710    5.8960 hc        1 MOL      0.120584
      6 H3          6.2040   -1.7130    5.3530 hc        1 MOL      0.120584
      7 N1          4.7860   -1.0590    3.2210 n         1 MOL     -0.517800
      8 C3          3.8990   -0.7660    2.0440 c3        1 MOL      0.034521
      9 C4          3.7190   -2.0260    1.1620 c         1 MOL      0.284495
     10 O2          2.6440   -2.2690    0.5670 o         1 MOL     -0.583295
     11 C5          4.3700    0.4440    1.2070 c3        1 MOL     -0.014175
     12 C6          5.9030    0.3600    0.8720 c         1 MOL      0.546292
     13 O3          6.3590   -0.5610    0.1910 o         1 MOL     -0.624617
     14 O4          6.6530    1.2690    1.3090 o         1 MOL     -0.624617
     15 H4          5.5190   -1.7280    3.0320 hn        1 MOL      0.313703
     16 H5          2.9200   -0.4650    2.4110 h1        1 MOL      0.079878
     17 H6          4.1060    1.2910    1.8350 hc        1 MOL      0.021797
     18 H7          3.8000    0.4520    0.2830 hc        1 MOL      0.021797
     19 N2          4.6740   -2.8460    0.9920 n         1 MOL     -0.178424
     20 C7          4.6200   -4.1930    0.3800 c3        1 MOL      0.103330
     21 C8          4.5700   -4.1600   -1.1770 c         1 MOL      0.507142
     22 O5          5.0740   -5.0800   -1.8220 o         1 MOL     -0.551810
     23 C9          5.8720   -4.9590    0.7370 c3        1 MOL     -0.207678
     24 C10         5.9380   -5.2960    2.2530 c3        1 MOL      0.069305
     25 C11         7.2510   -5.8190    2.7090 c3        1 MOL      0.015157
     26 C12         7.2450   -5.9430    4.2280 c3        1 MOL      0.119499
     27 N3          7.5050   -7.3680    4.5700 n4        1 MOL     -0.496219
     28 H8          5.5840   -2.5310    1.2960 hn        1 MOL      0.229822
     29 H9          3.6980   -4.6410    0.7470 h1        1 MOL      0.045043
     30 H10         6.6840   -4.2860    0.4720 hc        1 MOL      0.084255
     31 H11         5.8860   -5.9340    0.2450 hc        1 MOL      0.084255
     32 H12         5.1310   -5.9830    2.5000 hc        1 MOL     -0.040231
     33 H13         5.6840   -4.3580    2.7520 hc        1 MOL     -0.040231
     34 H14         8.0860   -5.1640    2.4880 hc        1 MOL      0.033712
     35 H15         7.5140   -6.7760    2.2560 hc        1 MOL      0.033712
     36 H16         6.2790   -5.6630    4.6280 hx        1 MOL      0.050444
     37 H17         8.0360   -5.2940    4.6260 hx        1 MOL      0.050444
     38 H18         8.4000   -7.5570    4.1320 hn        1 MOL      0.364248
     39 H19         7.5020   -7.4190    5.5800 hn        1 MOL      0.364248
     40 H20         6.7420   -7.9530    4.2580 hn        1 MOL      0.364248
     41 N4          4.0930   -3.0660   -1.7460 n         1 MOL     -0.378384
     42 C13         4.2340   -2.7400   -3.1730 c3        1 MOL      0.074051
     43 C14         4.3590   -1.2360   -3.3990 c         1 MOL      0.414768
     44 O6          4.0080   -0.6650   -4.4920 o         1 MOL     -0.502570
     45 C15         3.0620   -3.4010   -3.8690 c3        1 MOL     -0.392607
     46 C16         1.6810   -2.7840   -3.4850 c         1 MOL      0.699358
     47 O7          0.7630   -3.0220   -4.3270 o         1 MOL     -0.678212
     48 O8          1.5650   -2.1350   -2.4510 o         1 MOL     -0.678212
     49 H21         3.5080   -2.4010   -1.2460 hn        1 MOL      0.242587
     50 H22         5.1370   -3.1800   -3.5950 h1        1 MOL      0.111537
     51 H23         3.0380   -4.4760   -3.6610 hc        1 MOL      0.123598
     52 H24         3.2000   -3.1480   -4.9200 hc        1 MOL      0.123598
     53 N5          4.9800   -0.5140   -2.4790 n         1 MOL     -0.334025
     54 C17         5.1950    0.9460   -2.5960 c3        1 MOL      0.096009
     55 C18         6.3660    1.3560   -3.4730 c         1 MOL      0.596060
     56 O9          7.1290    0.5900   -4.0360 o         1 MOL     -0.538798
     57 H25         5.4570   -1.0220   -1.7550 hn        1 MOL      0.213962
     58 H26         5.4190    1.3110   -1.5870 h1        1 MOL      0.048973
     59 H27         4.3680    1.4790   -3.0600 h1        1 MOL      0.048973
     60 N6          6.6120    2.6790   -3.5530 n         1 MOL     -0.638972
     61 C19         5.8330    3.8330   -3.0020 c3        1 MOL      0.233682
     62 C20         6.2220    3.9730   -1.4800 c         1 MOL      0.477651
     63 O10         7.4350    4.0420   -1.2000 o         1 MOL     -0.498612
     64 C21         6.3350    5.1130   -3.7830 c3        1 MOL     -0.377632
     65 C22         5.1330    6.0910   -3.9840 c         1 MOL      0.700901
     66 N7          5.0620    6.9860   -4.9630 n         1 MOL     -0.821726
     67 O11         4.2170    6.1180   -3.2480 o         1 MOL     -0.528012
     68 H28         7.5530    2.8720   -3.8750 hn        1 MOL      0.343570
     69 H29         4.7820    3.7440   -3.2650 h1        1 MOL      0.090527
     70 H30         6.8640    4.9140   -4.7070 hc        1 MOL      0.115031
     71 H31         7.1210    5.6160   -3.2140 hc        1 MOL      0.115031
     72 H32         5.8050    7.0890   -5.6470 hn        1 MOL      0.364400
     73 H33         4.3350    7.6710   -4.9210 hn        1 MOL      0.364400
     74 N8          5.2640    4.0050   -0.5360 n         1 MOL     -0.460843
     75 C23         3.8260    3.6940   -0.7210 c3        1 MOL      0.028226
     76 C24         2.9450    3.9130    0.4940 c         1 MOL      0.694915
     77 O12         3.4570    4.4520    1.5000 o         1 MOL     -0.530607
     78 H34         5.5560    4.1340    0.4180 hn        1 MOL      0.323049
     79 H35         3.6180    2.6320   -0.8800 h1        1 MOL     -0.014608
     80 H36         3.4070    4.1810   -1.5960 h1        1 MOL     -0.014608
     81 N9          1.6600    3.6010    0.2800 n         1 MOL     -0.683242
     82 C25         0.6170    3.8370    1.1910 c3        1 MOL      0.181652
     83 C26        -0.6270    2.9750    0.9190 c         1 MOL      0.611977
     84 O13        -0.7570    2.3660   -0.1630 o         1 MOL     -0.619431
     85 C27         0.2090    5.3040    0.9820 c3        1 MOL     -0.276063
     86 C28        -0.5490    5.8590    2.1820 ca        1 MOL     -0.004432
     87 C29        -1.8510    6.4170    2.0120 ca        1 MOL     -0.095682
     88 C30        -0.0020    5.8290    3.4740 ca        1 MOL     -0.095682
     89 C31        -2.7010    6.7010    3.1270 ca        1 MOL     -0.316145
     90 C32        -0.8010    6.1020    4.5980 ca        1 MOL     -0.316145
     91 C33        -2.1840    6.5270    4.4310 ca        1 MOL      0.392331
     92 O14        -2.8830    7.0450    5.4850 oh        1 MOL     -0.491897
     93 H37         1.4630    3.2940   -0.6660 hn        1 MOL      0.375429
     94 H38         0.9670    3.7080    2.2150 h1        1 MOL      0.058653
     95 H39        -0.3930    5.4080    0.0810 hc        1 MOL      0.139521
     96 H40         1.0940    5.9380    0.9400 hc        1 MOL      0.139521
     97 H41        -2.2700    6.4800    1.0170 ha        1 MOL      0.127089
     98 H42         0.9690    5.3660    3.5890 ha        1 MOL      0.127089
     99 H43        -3.6580    7.1910    3.0200 ha        1 MOL      0.158529
    100 H44        -0.3320    6.1950    5.5710 ha        1 MOL      0.158529
    101 H45        -2.2510    7.1850    6.1840 ho        1 MOL      0.356191
    102 N10        -1.6250    2.9210    1.7910 n         1 MOL     -0.597185
    103 C34        -2.9010    2.1960    1.6140 c3        1 MOL      0.415038
    104 C35        -3.8220    2.9440    0.6850 c         1 MOL      0.547375
    105 O15        -3.8350    4.1750    0.5040 o         1 MOL     -0.508092
    106 C36        -3.4740    2.0180    3.0590 c3        1 MOL      0.018129
    107 C37        -2.6650    1.0080    3.8780 c3        1 MOL      0.040986
    108 C38        -3.5140    3.2530    3.9920 c3        1 MOL     -0.038435
    109 C39        -2.7640   -0.4050    3.3140 c3        1 MOL     -0.171586
    110 H46        -1.6370    3.6430    2.5070 hn        1 MOL      0.260296
    111 H47        -2.6880    1.2860    1.0470 h1        1 MOL     -0.032131
    112 H48        -4.5300    1.7420    3.0050 hc        1 MOL      0.011425
    113 H49        -3.0690    0.8660    4.8910 hc        1 MOL     -0.001417
    114 H50        -1.6200    1.2880    3.9580 hc        1 MOL     -0.001417
    115 H51        -4.0170    4.0450    3.4340 hc        1 MOL      0.009011
    116 H52        -4.1480    3.1140    4.8610 hc        1 MOL      0.009011
    117 H53        -2.5310    3.5830    4.3560 hc        1 MOL      0.009011
    118 H54        -2.4900   -1.0400    4.1530 hc        1 MOL      0.028558
    119 H55        -3.6740   -0.6360    2.7690 hc        1 MOL      0.028558
    120 H56        -2.0030   -0.4400    2.5360 hc        1 MOL      0.028558
    121 N11        -4.7920    2.1200    0.2040 n         1 MOL     -0.535104
    122 C40        -5.8690    2.5300   -0.6930 c3        1 MOL      0.032498
    123 C41        -6.1110    1.4000   -1.6860 c         1 MOL      0.758469
    124 O16        -5.6880    0.2670   -1.4510 o         1 MOL     -0.547908
    125 C42        -7.0380    3.1020    0.2150 c3        1 MOL      0.198571
    126 O17        -7.6080    2.2470    1.0960 oh        1 MOL     -0.609173
    127 H57        -4.7460    1.1210    0.3430 hn        1 MOL      0.291117
    128 H58        -5.4820    3.3660   -1.2740 h1        1 MOL      0.034805
    129 H59        -7.7750    3.4390   -0.5110 h1        1 MOL     -0.004392
    130 H60        -6.6500    3.9930    0.7200 h1        1 MOL     -0.004392
    131 H61        -8.4100    2.6700    1.4150 ho        1 MOL      0.421438
    132 N12        -6.7630    1.8090   -2.7690 n         1 MOL     -0.650445
    133 C43        -6.9900    0.8300   -3.8670 c3        1 MOL      0.278126
    134 C44        -7.8060   -0.3620   -3.3650 c         1 MOL      0.390286
    135 O18        -7.5360   -1.5430   -3.7370 o         1 MOL     -0.427919
    136 C45        -5.7500    0.4520   -4.6860 c3        1 MOL     -0.351468
    137 H62        -6.8860    2.7920   -2.9450 hn        1 MOL      0.338291
    138 H63        -7.6400    1.2880   -4.6240 h1        1 MOL      0.035766
    139 H64        -5.3020    1.3590   -5.1060 hc        1 MOL      0.111693
    140 H65        -5.1430   -0.0710   -3.9590 hc        1 MOL      0.111693
    141 H66        -6.0480   -0.2320   -5.4840 hc        1 MOL      0.111693
    142 N13        -8.6410   -0.0980   -2.2940 n         1 MOL     -0.630785
    143 C46        -9.4750   -1.0730   -1.6120 c3        1 MOL      0.383148
    144 C47        -8.7650   -2.3270   -1.0950 c         1 MOL      0.249454
    145 O19        -9.4010   -3.3380   -0.7830 o         1 MOL     -0.435056
    146 C48       -10.7150   -1.3530   -2.5120 c3        1 MOL     -0.245796
    147 H67        -8.6640    0.8520   -1.9640 hn        1 MOL      0.306937
    148 H68        -9.8460   -0.5670   -0.7220 h1        1 MOL     -0.001402
    149 H69       -11.1930   -2.1930   -2.0150 hc        1 MOL      0.068740
    150 H70       -11.3970   -0.5020   -2.5200 hc        1 MOL      0.068740
    151 H71       -10.3540   -1.5690   -3.5110 hc        1 MOL      0.068740
    152 N14        -7.4340   -2.3390   -0.8370 n         1 MOL     -0.167673
    153 C49        -6.7060   -3.4370   -0.2150 c3        1 MOL     -0.243058
    154 C50        -7.2070   -4.0030    1.0790 c         1 MOL      0.504727
    155 O20        -7.5750   -5.1670    1.0500 o         1 MOL     -0.519535
    156 C51        -5.2180   -3.0190   -0.2690 c3        1 MOL      0.316530
    157 C52        -4.3330   -4.1470    0.3780 c3        1 MOL     -0.142974
    158 C53        -2.8560   -3.7460    0.1980 c         1 MOL      0.723882
    159 O21        -2.4930   -2.5790    0.0540 o         1 MOL     -0.749584
    160 O22        -1.9540   -4.5910   -0.0060 o         1 MOL     -0.749584
    161 H72        -6.9540   -1.4940   -1.1240 hn        1 MOL      0.147701
    162 H73        -6.8590   -4.2750   -0.8950 h1        1 MOL      0.158059
    163 H74        -5.0230   -2.1330    0.3350 hc        1 MOL     -0.021081
    164 H75        -4.9160   -2.7890   -1.2930 hc        1 MOL     -0.021081
    165 H76        -4.5310   -5.1260   -0.0560 hc        1 MOL     -0.003450
    166 H77        -4.4740   -4.1080    1.4610 hc        1 MOL     -0.003450
    167 N15        -7.4720   -3.1360    2.0440 n         1 MOL     -0.242682
    168 C54        -8.2060   -3.4780    3.2860 c3        1 MOL     -0.317574
    169 H78        -8.6340   -4.4770    3.1920 h1        1 MOL      0.130156
    170 H79        -7.5200   -3.4550    4.1330 h1        1 MOL      0.130156
    171 H80        -9.0060   -2.7540    3.4460 h1        1 MOL      0.130156
    172 H81        -7.1410   -2.1960    1.9110 hn        1 MOL      0.222744
    173 Ca1         0.1220   -2.9090   -0.2270 Ca        1 MOL      1.723007
    174 O23         0.4830   -4.9640   -1.7750 oh        1 MOL     -0.812816
    175 H82         0.2330   -5.0980   -2.6960 ho        1 MOL      0.402721
    176 H83         0.9130   -5.7830   -1.5220 ho        1 MOL      0.402721
    177 O24         1.2290   -4.9820    0.9880 oh        1 MOL     -0.812816
    178 H84         1.8210   -4.9720    1.7400 ho        1 MOL      0.402721
    179 H85         0.7050   -5.7740    1.1080 ho        1 MOL      0.402721
    180 O25         0.0200   -1.9990    2.2830 oh        1 MOL     -0.812816
    181 H86        -0.0340   -2.1670    3.2220 ho        1 MOL      0.402721
    182 H87         0.6260   -1.2670    2.2010 ho        1 MOL      0.402721
    183 O26        -1.2140   -2.0880   -2.4540 oh        1 MOL     -0.812816
    184 O27         0.3120   -0.2610   -0.5300 oh        1 MOL     -0.812816
    185 H88        -0.4580   -1.7610   -2.9390 ho        1 MOL      0.402721
    186 H89        -0.2930    0.4620   -0.3750 ho        1 MOL      0.402721
    187 H90        -1.9490   -1.5890   -2.7950 ho        1 MOL      0.402721
    188 H91         0.9370    0.0850   -1.1590 ho        1 MOL      0.402721
@<TRIPOS>BOND
     1    1    2 1   
     2    1    4 1   
     3    1    5 1   
     4    1    6 1   
     5    2    3 2   
     6    2    7 1   
     7    7    8 1   
     8    7   15 1   
     9    8    9 1   
    10    8   11 1   
    11    8   16 1   
    12    9   10 2   
    13    9   19 1   
    14   11   12 1   
    15   11   17 1   
    16   11   18 1   
    17   12   13 1   
    18   12   14 1   
    19   19   20 1   
    20   19   28 1   
    21   20   21 1   
    22   20   23 1   
    23   20   29 1   
    24   21   22 2   
    25   21   41 1   
    26   23   24 1   
    27   23   30 1   
    28   23   31 1   
    29   24   25 1   
    30   24   32 1   
    31   24   33 1   
    32   25   26 1   
    33   25   34 1   
    34   25   35 1   
    35   26   27 1   
    36   26   36 1   
    37   26   37 1   
    38   27   38 1   
    39   27   39 1   
    40   27   40 1   
    41   41   42 1   
    42   41   49 1   
    43   42   43 1   
    44   42   45 1   
    45   42   50 1   
    46   43   44 2   
    47   43   53 1   
    48   45   46 1   
    49   45   51 1   
    50   45   52 1   
    51   46   47 1   
    52   46   48 1   
    53   53   54 1   
    54   53   57 1   
    55   54   55 1   
    56   54   58 1   
    57   54   59 1   
    58   55   56 2   
    59   55   60 1   
    60   60   61 1   
    61   60   68 1   
    62   61   62 1   
    63   61   64 1   
    64   61   69 1   
    65   62   63 2   
    66   62   74 1   
    67   64   65 1   
    68   64   70 1   
    69   64   71 1   
    70   65   66 1   
    71   65   67 2   
    72   66   72 1   
    73   66   73 1   
    74   74   75 1   
    75   74   78 1   
    76   75   76 1   
    77   75   79 1   
    78   75   80 1   
    79   76   77 2   
    80   76   81 1   
    81   81   82 1   
    82   81   93 1   
    83   82   83 1   
    84   82   85 1   
    85   82   94 1   
    86   83   84 2   
    87   83  102 1   
    88   85   86 1   
    89   85   95 1   
    90   85   96 1   
    91   86   87 ar  
    92   86   88 ar  
    93   87   89 ar  
    94   87   97 1   
    95   88   90 ar  
    96   88   98 1   
    97   89   91 ar  
    98   89   99 1   
    99   90   91 ar  
   100   90  100 1   
   101   91   92 1   
   102   92  101 1   
   103  102  103 1   
   104  102  110 1   
   105  103  104 1   
   106  103  106 1   
   107  103  111 1   
   108  104  105 2   
   109  104  121 1   
   110  106  107 1   
   111  106  108 1   
   112  106  112 1   
   113  107  109 1   
   114  107  113 1   
   115  107  114 1   
   116  108  115 1   
   117  108  116 1   
   118  108  117 1   
   119  109  118 1   
   120  109  119 1   
   121  109  120 1   
   122  121  122 1   
   123  121  127 1   
   124  122  123 1   
   125  122  125 1   
   126  122  128 1   
   127  123  124 2   
   128  123  132 1   
   129  125  126 1   
   130  125  129 1   
   131  125  130 1   
   132  126  131 1   
   133  132  133 1   
   134  132  137 1   
   135  133  134 1   
   136  133  136 1   
   137  133  138 1   
   138  134  135 2   
   139  134  142 1   
   140  136  139 1   
   141  136  140 1   
   142  136  141 1   
   143  142  143 1   
   144  142  147 1   
   145  143  144 1   
   146  143  146 1   
   147  143  148 1   
   148  144  145 2   
   149  144  152 1   
   150  146  149 1   
   151  146  150 1   
   152  146  151 1   
   153  152  153 1   
   154  152  161 1   
   155  153  154 1   
   156  153  156 1   
   157  153  162 1   
   158  154  155 2   
   159  154  167 1   
   160  156  157 1   
   161  156  163 1   
   162  156  164 1   
   163  157  158 1   
   164  157  165 1   
   165  157  166 1   
   166  158  159 1   
   167  158  160 1   
   168  167  168 1   
   169  167  172 1   
   170  168  169 1   
   171  168  170 1   
   172  168  171 1   
   173  174  175 1   
   174  174  176 1   
   175  177  178 1   
   176  177  179 1   
   177  180  181 1   
   178  180  182 1   
   179  183  185 1   
   180  183  187 1   
   181  184  186 1   
   182  184  188 1   
@<TRIPOS>SUBSTRUCTURE
     1 MOL         1 TEMP              0 ****  ****    0 ROOT
