@<TRIPOS>MOLECULE
MOL
  192   187     1     0     0
SMALL
resp


@<TRIPOS>ATOM
      1 C1          9.9910    0.1800    1.6430 c3        1 MOL     -0.605838
      2 C2          8.7180   -0.2200    0.8030 c         1 MOL      0.861356
      3 O1          7.7160   -0.2730    1.4570 o         1 MOL     -0.636571
      4 H1          9.7960    1.1110    2.1750 hc        1 MOL      0.152000
      5 H2         10.2170   -0.6080    2.3600 hc        1 MOL      0.152000
      6 H3         10.8410    0.3170    0.9730 hc        1 MOL      0.152000
      7 N1          8.7590   -0.4910   -0.5030 n         1 MOL     -0.775010
      8 C3          7.4940   -0.6030   -1.2640 c3        1 MOL      0.318435
      9 C4          6.8870   -1.9640   -1.2930 c         1 MOL      0.486596
     10 O2          6.8180   -2.6230   -2.2950 o         1 MOL     -0.480231
     11 C5          7.5380    0.1190   -2.6050 c3        1 MOL     -0.146753
     12 C6          8.4750    1.2820   -2.6090 c         1 MOL      0.765823
     13 O3          8.2370    2.3710   -2.0640 o         1 MOL     -0.668685
     14 O4          9.5170    1.1470   -3.3050 o         1 MOL     -0.668685
     15 H4          9.6260   -0.4220   -1.0060 hn        1 MOL      0.356225
     16 H5          6.8300    0.0590   -0.7090 h1        1 MOL     -0.013221
     17 H6          6.6140    0.6320   -2.8440 hc        1 MOL      0.031554
     18 H7          7.7170   -0.5830   -3.4220 hc        1 MOL      0.031554
     19 N2          6.5800   -2.4350   -0.0920 n         1 MOL     -0.428350
     20 C7          6.0120   -3.7950    0.1410 c3        1 MOL      0.219873
     21 C8          4.5480   -4.0540   -0.3780 c         1 MOL      0.363272
     22 O5          4.3490   -5.0460   -1.0540 o         1 MOL     -0.521547
     23 C9          6.3280   -4.2770    1.5810 c3        1 MOL     -0.070060
     24 C10         7.7740   -4.6440    1.8470 c3        1 MOL     -0.019680
     25 C11         8.0890   -5.2970    3.1850 c3        1 MOL      0.080075
     26 C12         9.5670   -5.1860    3.4120 c3        1 MOL     -0.026215
     27 N3          9.7990   -4.9030    4.8220 n4        1 MOL     -0.224349
     28 H8          6.8640   -1.8950    0.7140 hn        1 MOL      0.243120
     29 H9          6.5380   -4.4130   -0.5820 h1        1 MOL      0.040494
     30 H10         5.7040   -5.1380    1.8380 hc        1 MOL      0.006100
     31 H11         5.9840   -3.4640    2.2160 hc        1 MOL      0.006100
     32 H12         8.2590   -3.6710    1.7200 hc        1 MOL      0.006902
     33 H13         8.0760   -5.2980    1.0270 hc        1 MOL      0.006902
     34 H14         7.8710   -6.3670    3.1990 hc        1 MOL      0.019635
     35 H15         7.5250   -4.9280    4.0440 hc        1 MOL      0.019635
     36 H16         9.9140   -4.3440    2.8140 hx        1 MOL      0.086738
     37 H17        10.0420   -6.0650    2.9930 hx        1 MOL      0.086738
     38 H18         9.3140   -5.6150    5.3420 hn        1 MOL      0.250457
     39 H19        10.7670   -4.8490    5.0850 hn        1 MOL      0.250457
     40 H20         9.3060   -4.0450    5.0520 hn        1 MOL      0.250457
     41 N4          3.6940   -3.0490   -0.3370 n         1 MOL     -0.220405
     42 C13         3.6820   -1.8580    0.5260 c3        1 MOL      0.020555
     43 C14         3.9160   -0.6570   -0.3370 c         1 MOL      0.109982
     44 O6          3.7930   -0.7710   -1.5190 o         1 MOL     -0.398828
     45 C15         2.5030   -1.7790    1.5170 c3        1 MOL     -0.203336
     46 C16         1.2120   -2.0210    0.8580 c         1 MOL      0.649801
     47 O7          0.7300   -1.2320   -0.0370 o         1 MOL     -0.668724
     48 O8          0.4780   -2.9660    1.3080 o         1 MOL     -0.668724
     49 H21         2.9220   -3.1500   -0.9820 hn        1 MOL      0.310496
     50 H22         4.4480   -1.9970    1.2900 h1        1 MOL      0.100847
     51 H23         2.4160   -0.7870    1.9630 hc        1 MOL      0.055418
     52 H24         2.5890   -2.6300    2.1890 hc        1 MOL      0.055418
     53 N5          4.1460    0.5310    0.2260 n         1 MOL     -0.291874
     54 C17         4.3140    1.7620   -0.4980 c3        1 MOL      0.029474
     55 C18         2.8860    2.4230   -0.8130 c         1 MOL      0.506519
     56 O9          1.8410    1.8050   -0.5700 o         1 MOL     -0.603560
     57 H25         4.1390    0.6410    1.2250 hn        1 MOL      0.282937
     58 H26         4.9620    1.7230   -1.3710 h1        1 MOL      0.082965
     59 H27         4.8750    2.4320    0.1650 h1        1 MOL      0.082965
     60 N6          2.9050    3.6870   -1.2120 n         1 MOL     -0.440665
     61 C19         1.9460    4.5950   -1.7770 c3        1 MOL      0.435016
     62 C20         2.5110    6.0180   -1.7260 c         1 MOL      0.400014
     63 O10         3.7450    6.2370   -1.6950 o         1 MOL     -0.497487
     64 C21         1.8660    4.2350   -3.3180 c3        1 MOL     -0.406397
     65 C22         1.3800    2.8130   -3.4770 c         1 MOL      0.660925
     66 O11         0.2640    2.4900   -2.9580 o         1 MOL     -0.634519
     67 O12         2.0550    1.9370   -4.1360 o         1 MOL     -0.634519
     68 H28         3.7780    4.1870   -1.1290 hn        1 MOL      0.228815
     69 H29         0.9720    4.3830   -1.3440 h1        1 MOL     -0.077793
     70 H30         2.8820    4.3650   -3.6880 hc        1 MOL      0.110754
     71 H31         1.3260    5.0020   -3.8770 hc        1 MOL      0.110754
     72 N7          1.6820    7.0820   -1.7980 n         1 MOL     -0.471676
     73 C23         0.1400    6.9700   -1.8660 c3        1 MOL      0.015731
     74 C24        -0.5540    6.2920   -0.6940 c         1 MOL      0.635067
     75 O13        -0.0650    6.4370    0.4040 o         1 MOL     -0.529042
     76 H32         2.0900    7.9930   -1.9250 hn        1 MOL      0.338563
     77 H33        -0.1040    6.3680   -2.7400 h1        1 MOL      0.041204
     78 H34        -0.2330    7.9840   -2.0140 h1        1 MOL      0.041204
     79 N8         -1.6640    5.7110   -0.9080 n         1 MOL     -0.586262
     80 C25        -2.3450    4.9920    0.1530 c3        1 MOL     -0.020893
     81 C26        -1.5230    3.8970    0.7940 c         1 MOL      0.682780
     82 O14        -0.9210    3.0820    0.0330 o         1 MOL     -0.606951
     83 C27        -3.7740    4.5900   -0.3710 c3        1 MOL      0.280387
     84 C28        -4.7200    4.0720    0.6860 c3        1 MOL     -0.442859
     85 O15        -3.6020    3.5560   -1.3490 oh        1 MOL     -0.601088
     86 H35        -2.1630    5.7950   -1.7790 hn        1 MOL      0.320983
     87 H36        -2.5510    5.7050    0.9470 h1        1 MOL      0.072949
     88 H37        -4.2560    5.3920   -0.9310 h1        1 MOL      0.048398
     89 H38        -3.6870    3.9560   -2.2070 ho        1 MOL      0.418389
     90 H39        -4.6230    4.7000    1.5630 hc        1 MOL      0.129291
     91 H40        -5.7430    3.9770    0.3260 hc        1 MOL      0.129291
     92 H41        -4.4790    3.0570    1.0070 hc        1 MOL      0.129291
     93 N9         -1.5970    3.7550    2.1370 n         1 MOL     -0.621229
     94 C29        -0.9180    2.6690    2.9260 c3        1 MOL      0.043090
     95 C30        -1.4350    1.2720    2.4230 c         1 MOL      0.654320
     96 O16        -1.0180    0.7930    1.3810 o         1 MOL     -0.579577
     97 C31         0.6730    2.7690    2.8810 c3        1 MOL      0.073527
     98 C32         1.1700    4.0710    3.4940 c3        1 MOL      0.065767
     99 C33         1.3150    1.6450    3.6910 c3        1 MOL     -0.503828
    100 C34         2.4380    4.5670    2.7920 c3        1 MOL     -0.132473
    101 H42        -1.9800    4.4840    2.7200 hn        1 MOL      0.347971
    102 H43        -1.0840    2.8460    3.9840 h1        1 MOL      0.043292
    103 H44         1.0880    2.7290    1.8670 hc        1 MOL      0.158210
    104 H45         1.3260    3.9360    4.5660 hc        1 MOL     -0.013359
    105 H46         0.3780    4.8160    3.3930 hc        1 MOL     -0.013359
    106 H47         0.9570    1.6310    4.7230 hc        1 MOL      0.132448
    107 H48         1.1400    0.7840    3.0440 hc        1 MOL      0.132448
    108 H49         2.4010    1.7270    3.7120 hc        1 MOL      0.132448
    109 H50         2.3190    4.7720    1.7240 hc        1 MOL      0.025771
    110 H51         2.7070    5.4880    3.3130 hc        1 MOL      0.025771
    111 H52         3.1720    3.7700    2.7700 hc        1 MOL      0.025771
    112 N10        -2.3400    0.7110    3.2040 n         1 MOL     -0.555614
    113 C35        -2.7060   -0.7210    3.0870 c3        1 MOL      0.081317
    114 C36        -4.2220   -1.0360    3.3020 c         1 MOL      0.336451
    115 O17        -4.6740   -2.1500    3.5020 o         1 MOL     -0.518338
    116 C37        -1.8260   -1.4270    4.0660 c3        1 MOL      0.489894
    117 C38        -2.0230   -1.0350    5.5400 c3        1 MOL     -0.412621
    118 O18        -0.4600   -1.4010    3.7080 oh        1 MOL     -0.586902
    119 H53        -2.5410    1.2060    4.0590 hn        1 MOL      0.284878
    120 H54        -2.3590   -1.0450    2.1130 h1        1 MOL      0.075357
    121 H55        -2.1520   -2.4590    3.9470 h1        1 MOL     -0.049445
    122 H56        -0.4760   -1.7880    2.8360 ho        1 MOL      0.348288
    123 H57        -1.6730   -1.8460    6.1840 hc        1 MOL      0.101118
    124 H58        -1.3630   -0.1760    5.6540 hc        1 MOL      0.101118
    125 H59        -3.0760   -0.8370    5.6960 hc        1 MOL      0.101118
    126 N11        -5.0570   -0.0230    3.1970 n         1 MOL     -0.092292
    127 C39        -6.5220   -0.0940    3.0370 c3        1 MOL     -0.055121
    128 C40        -6.9030   -0.6600    1.6730 c         1 MOL      0.423084
    129 O19        -7.1920    0.2080    0.8330 o         1 MOL     -0.515113
    130 C41        -7.0670    1.2670    3.4040 c3        1 MOL      0.338829
    131 C42        -7.0370    1.5020    4.9260 c3        1 MOL     -0.183493
    132 O20        -6.2750    2.3520    2.9560 oh        1 MOL     -0.593133
    133 H60        -4.7320    0.9290    3.0930 hn        1 MOL      0.144732
    134 H61        -7.0090   -0.7450    3.7640 h1        1 MOL      0.031100
    135 H62        -8.1040    1.3480    3.0630 h1        1 MOL      0.007106
    136 H63        -6.2610    2.3360    1.9960 ho        1 MOL      0.358978
    137 H64        -7.5120    2.4430    5.2200 hc        1 MOL      0.048549
    138 H65        -7.6790    0.7760    5.4270 hc        1 MOL      0.048549
    139 H66        -6.0330    1.3650    5.3110 hc        1 MOL      0.048549
    140 N12        -6.7100   -1.9760    1.4960 n         1 MOL     -0.404962
    141 C43        -6.6450   -2.6810    0.2170 c3        1 MOL      0.129345
    142 C44        -5.5580   -2.2330   -0.7860 c         1 MOL      0.540383
    143 O21        -5.2320   -1.0590   -0.8460 o         1 MOL     -0.503820
    144 C45        -8.0100   -2.9670   -0.4270 c3        1 MOL     -0.293420
    145 C46        -8.7950   -1.8070   -1.0310 c3        1 MOL     -0.001086
    146 C47       -10.2190   -2.1330   -1.5850 c3        1 MOL      0.020817
    147 C48       -11.3320   -2.3220   -0.4480 c3        1 MOL     -0.044463
    148 N13       -12.6970   -2.3030   -1.0250 n4        1 MOL     -0.185478
    149 H67        -6.6160   -2.5310    2.3360 hn        1 MOL      0.308657
    150 H68        -6.3650   -3.6820    0.5240 h1        1 MOL      0.047842
    151 H69        -8.6290   -3.4730    0.3160 hc        1 MOL      0.078020
    152 H70        -7.8400   -3.7180   -1.1990 hc        1 MOL      0.078020
    153 H71        -8.1380   -1.3920   -1.7910 hc        1 MOL      0.059501
    154 H72        -8.9000   -1.0100   -0.2890 hc        1 MOL      0.059501
    155 H73       -10.2150   -2.8590   -2.3970 hc        1 MOL      0.029641
    156 H74       -10.4640   -1.2340   -2.1680 hc        1 MOL      0.029641
    157 H75       -11.1630   -1.5380    0.2850 hx        1 MOL      0.087878
    158 H76       -11.1190   -3.2420    0.0960 hx        1 MOL      0.087878
    159 H77       -13.3370   -2.4530   -0.2640 hn        1 MOL      0.212492
    160 H78       -12.9940   -1.4080   -1.3880 hn        1 MOL      0.212492
    161 H79       -12.8150   -3.0120   -1.7350 hn        1 MOL      0.212492
    162 N14        -4.9090   -3.1470   -1.5170 n         1 MOL     -0.560417
    163 C49        -3.6560   -2.7930   -2.2680 c3        1 MOL      0.370853
    164 C50        -2.4040   -2.5320   -1.4470 c         1 MOL      0.352770
    165 O22        -1.6790   -1.5800   -1.6670 o         1 MOL     -0.605762
    166 C51        -3.3830   -3.8350   -3.3010 c3        1 MOL      0.000166
    167 C52        -4.3250   -3.8550   -4.5780 c3        1 MOL     -0.189960
    168 C53        -4.0920   -5.0020   -5.5780 c         1 MOL      0.670113
    169 O23        -4.1780   -6.1890   -5.0650 o         1 MOL     -0.640105
    170 O24        -3.8170   -4.7840   -6.7960 o         1 MOL     -0.640105
    171 H80        -5.3030   -4.0700   -1.4960 hn        1 MOL      0.311681
    172 H81        -3.7820   -1.8440   -2.7780 h1        1 MOL      0.007752
    173 H82        -3.4900   -4.8140   -2.8350 hc        1 MOL      0.024694
    174 H83        -2.3240   -3.7560   -3.5370 hc        1 MOL      0.024694
    175 H84        -4.5450   -2.8650   -4.9700 hc        1 MOL      0.007890
    176 H85        -5.3080   -4.0930   -4.1640 hc        1 MOL      0.007890
    177 N15        -1.9950   -3.3150   -0.4390 n         1 MOL     -0.234715
    178 C54        -2.3590   -4.6490   -0.0310 c3        1 MOL     -0.080926
    179 H86        -2.7460   -5.1990   -0.8900 h1        1 MOL      0.045170
    180 H87        -1.4810   -5.1620    0.3610 h1        1 MOL      0.045170
    181 H88        -3.1250   -4.5980    0.7420 h1        1 MOL      0.045170
    182 H89        -1.2080   -2.9100    0.0450 hn        1 MOL      0.289634
    183 Ca1        -0.4820    0.7270   -1.2660 Ca        1 MOL      1.845649
    184 O25        -3.2290    0.8930   -0.7710 oh        1 MOL     -0.887142
    185 H90        -3.5700    1.7850   -0.8770 ho        1 MOL      0.421318
    186 H91        -4.0140    0.3580   -0.6410 ho        1 MOL      0.421318
    187 O26         1.3460   -0.2420   -3.0020 oh        1 MOL     -0.887142
    188 H92         1.6920    0.5370   -3.4200 ho        1 MOL      0.421318
    189 H93         2.0890   -0.6270   -2.5390 ho        1 MOL      0.421318
    190 O27        -1.9690    0.8510   -3.5820 oh        1 MOL     -0.887142
    191 H94        -1.7290    0.1350   -4.1730 ho        1 MOL      0.421318
    192 H95        -2.6490    1.3290   -4.0470 ho        1 MOL      0.421318
@<TRIPOS>BOND
     1    1    2 1   
     2    1    4 1   
     3    1    5 1   
     4    1    6 1   
     5    2    3 2   
     6    2    7 1   
     7    7    8 1   
     8    7   15 1   
     9    8    9 1   
    10    8   11 1   
    11    8   16 1   
    12    9   10 2   
    13    9   19 1   
    14   11   12 1   
    15   11   17 1   
    16   11   18 1   
    17   12   13 1   
    18   12   14 1   
    19   19   20 1   
    20   19   28 1   
    21   20   21 1   
    22   20   23 1   
    23   20   29 1   
    24   21   22 2   
    25   21   41 1   
    26   23   24 1   
    27   23   30 1   
    28   23   31 1   
    29   24   25 1   
    30   24   32 1   
    31   24   33 1   
    32   25   26 1   
    33   25   34 1   
    34   25   35 1   
    35   26   27 1   
    36   26   36 1   
    37   26   37 1   
    38   27   38 1   
    39   27   39 1   
    40   27   40 1   
    41   41   42 1   
    42   41   49 1   
    43   42   43 1   
    44   42   45 1   
    45   42   50 1   
    46   43   44 2   
    47   43   53 1   
    48   45   46 1   
    49   45   51 1   
    50   45   52 1   
    51   46   47 1   
    52   46   48 1   
    53   53   54 1   
    54   53   57 1   
    55   54   55 1   
    56   54   58 1   
    57   54   59 1   
    58   55   56 2   
    59   55   60 1   
    60   60   61 1   
    61   60   68 1   
    62   61   62 1   
    63   61   64 1   
    64   61   69 1   
    65   62   63 2   
    66   62   72 1   
    67   64   65 1   
    68   64   70 1   
    69   64   71 1   
    70   65   66 1   
    71   65   67 1   
    72   72   73 1   
    73   72   76 1   
    74   73   74 1   
    75   73   77 1   
    76   73   78 1   
    77   74   75 2   
    78   74   79 1   
    79   79   80 1   
    80   79   86 1   
    81   80   81 1   
    82   80   83 1   
    83   80   87 1   
    84   81   82 2   
    85   81   93 1   
    86   83   84 1   
    87   83   85 1   
    88   83   88 1   
    89   84   90 1   
    90   84   91 1   
    91   84   92 1   
    92   85   89 1   
    93   93   94 1   
    94   93  101 1   
    95   94   95 1   
    96   94   97 1   
    97   94  102 1   
    98   95   96 2   
    99   95  112 1   
   100   97   98 1   
   101   97   99 1   
   102   97  103 1   
   103   98  100 1   
   104   98  104 1   
   105   98  105 1   
   106   99  106 1   
   107   99  107 1   
   108   99  108 1   
   109  100  109 1   
   110  100  110 1   
   111  100  111 1   
   112  112  113 1   
   113  112  119 1   
   114  113  114 1   
   115  113  116 1   
   116  113  120 1   
   117  114  115 2   
   118  114  126 1   
   119  116  117 1   
   120  116  118 1   
   121  116  121 1   
   122  117  123 1   
   123  117  124 1   
   124  117  125 1   
   125  118  122 1   
   126  126  127 1   
   127  126  133 1   
   128  127  128 1   
   129  127  130 1   
   130  127  134 1   
   131  128  129 2   
   132  128  140 1   
   133  130  131 1   
   134  130  132 1   
   135  130  135 1   
   136  131  137 1   
   137  131  138 1   
   138  131  139 1   
   139  132  136 1   
   140  140  141 1   
   141  140  149 1   
   142  141  142 1   
   143  141  144 1   
   144  141  150 1   
   145  142  143 2   
   146  142  162 1   
   147  144  145 1   
   148  144  151 1   
   149  144  152 1   
   150  145  146 1   
   151  145  153 1   
   152  145  154 1   
   153  146  147 1   
   154  146  155 1   
   155  146  156 1   
   156  147  148 1   
   157  147  157 1   
   158  147  158 1   
   159  148  159 1   
   160  148  160 1   
   161  148  161 1   
   162  162  163 1   
   163  162  171 1   
   164  163  164 1   
   165  163  166 1   
   166  163  172 1   
   167  164  165 2   
   168  164  177 1   
   169  166  167 1   
   170  166  173 1   
   171  166  174 1   
   172  167  168 1   
   173  167  175 1   
   174  167  176 1   
   175  168  169 1   
   176  168  170 1   
   177  177  178 1   
   178  177  182 1   
   179  178  179 1   
   180  178  180 1   
   181  178  181 1   
   182  184  185 1   
   183  184  186 1   
   184  187  188 1   
   185  187  189 1   
   186  190  191 1   
   187  190  192 1   
@<TRIPOS>SUBSTRUCTURE
     1 MOL         1 TEMP              0 ****  ****    0 ROOT
