@<TRIPOS>MOLECULE
MOL
  178   175     1     0     0
SMALL
resp


@<TRIPOS>ATOM
      1 C1          2.6830   -2.7050    4.2190 c3        1 MOL     -0.332262
      2 C2          3.7200   -1.7750    3.5770 c         1 MOL      0.586856
      3 O1          3.8700   -1.8600    2.3500 o         1 MOL     -0.471215
      4 H1          1.6810   -2.3850    3.9310 hc        1 MOL      0.086493
      5 H2          2.8490   -3.7270    3.8770 hc        1 MOL      0.086493
      6 H3          2.7790   -2.6650    5.3050 hc        1 MOL      0.086493
      7 N1          4.4660   -1.0230    4.3680 n         1 MOL     -0.478612
      8 C3          5.5150   -0.0820    3.9480 c3        1 MOL      0.165564
      9 C4          6.4960   -0.6790    2.8870 c         1 MOL      0.318362
     10 O2          6.9020   -0.0010    1.9470 o         1 MOL     -0.385266
     11 C5          6.3230    0.3120    5.2420 c3        1 MOL     -0.190183
     12 C6          7.3330    1.4900    5.0150 c         1 MOL      0.692191
     13 O3          6.9170    2.5320    4.5280 o         1 MOL     -0.702068
     14 O4          8.5880    1.3590    5.2060 o         1 MOL     -0.702068
     15 H4          4.3760   -1.1990    5.3510 hn        1 MOL      0.294234
     16 H5          5.1250    0.8580    3.5470 h1        1 MOL      0.057772
     17 H6          6.8780   -0.5560    5.5980 hc        1 MOL     -0.021143
     18 H7          5.6200    0.4680    6.0510 hc        1 MOL     -0.021143
     19 N2          6.9180   -1.9500    3.0240 n         1 MOL     -0.181610
     20 C7          7.7480   -2.6910    2.1250 c3        1 MOL      0.059963
     21 C8          7.2230   -2.8230    0.6380 c         1 MOL      0.332733
     22 O5          8.0480   -3.0700   -0.2760 o         1 MOL     -0.519374
     23 C9          9.1630   -2.1410    2.2600 c3        1 MOL     -0.169087
     24 H8          6.5000   -2.5220    3.7440 hn        1 MOL      0.209260
     25 H9          7.7400   -3.6070    2.7200 h1        1 MOL      0.032727
     26 H10         9.2230   -1.2120    1.7030 hc        1 MOL      0.046923
     27 H11         9.4370   -2.0880    3.3230 hc        1 MOL      0.046923
     28 H12         9.9200   -2.7940    1.8290 hc        1 MOL      0.046923
     29 N3          5.9480   -2.6140    0.5250 n         1 MOL     -0.235207
     30 C10         5.2460   -2.6370   -0.8320 c3        1 MOL      0.241180
     31 C11         5.5260   -1.4300   -1.7390 c         1 MOL      0.272330
     32 O6          5.3050   -1.4930   -2.9740 o         1 MOL     -0.489755
     33 C12         5.3150   -4.0760   -1.4740 c3        1 MOL     -0.181461
     34 C13         4.1360   -4.3870   -2.2420 c         1 MOL      0.888460
     35 O7          4.2000   -5.3630   -3.0300 o         1 MOL     -0.798033
     36 O8          3.0400   -3.7980   -2.0870 o         1 MOL     -0.798033
     37 H13         5.3630   -2.3780    1.3200 hn        1 MOL      0.091579
     38 H14         4.2110   -2.4980   -0.5220 h1        1 MOL      0.033537
     39 H15         5.5040   -4.8450   -0.7290 hc        1 MOL      0.035266
     40 H16         6.1700   -4.0080   -2.1550 hc        1 MOL      0.035266
     41 N4          5.8970   -0.3180   -1.1080 n         1 MOL      0.028186
     42 C14         6.1910    0.8870   -1.8800 c3        1 MOL     -0.213095
     43 C15         5.0390    1.8520   -2.4310 c         1 MOL      0.566527
     44 O9          5.4190    2.9800   -2.7410 o         1 MOL     -0.570044
     45 H17         6.1340   -0.3450   -0.1290 hn        1 MOL      0.081833
     46 H18         6.8520    0.6260   -2.7070 h1        1 MOL      0.099049
     47 H19         6.8090    1.5050   -1.2290 h1        1 MOL      0.099049
     48 N5          3.7790    1.5250   -2.2500 n         1 MOL     -0.308422
     49 C16         2.6810    2.2750   -2.9330 c3        1 MOL      0.036554
     50 C17         2.5400    3.7330   -2.4250 c         1 MOL      0.733406
     51 O10         2.4030    3.9580   -1.2000 o         1 MOL     -0.591351
     52 C18         1.3790    1.5320   -2.8780 c3        1 MOL     -0.392353
     53 C19         1.3810    0.1380   -3.5170 c         1 MOL      0.615203
     54 N6          1.3170    0.0720   -4.8230 n         1 MOL     -0.684432
     55 O11         1.6030   -0.8750   -2.8240 o         1 MOL     -0.405335
     56 H20         3.4560    0.6440   -1.8710 hn        1 MOL      0.182650
     57 H21         2.8840    2.3520   -4.0010 h1        1 MOL     -0.001131
     58 H22         0.5450    2.0840   -3.3160 hc        1 MOL      0.121766
     59 H23         1.0600    1.4360   -1.8480 hc        1 MOL      0.121766
     60 H24         0.9250    0.8930   -5.2800 hn        1 MOL      0.334542
     61 H25         1.3750   -0.8570   -5.2260 hn        1 MOL      0.334542
     62 N7          2.4130    4.6880   -3.3260 n         1 MOL     -0.516332
     63 C20         1.9980    6.0550   -3.0900 c3        1 MOL     -0.075994
     64 C21         0.4950    6.3360   -2.6700 c         1 MOL      0.550766
     65 O12        -0.4040    6.0140   -3.4570 o         1 MOL     -0.504119
     66 H26         2.3190    4.4410   -4.2990 hn        1 MOL      0.301927
     67 H27         2.2200    6.6790   -3.9510 h1        1 MOL      0.093475
     68 H28         2.6830    6.5340   -2.3860 h1        1 MOL      0.093475
     69 N8          0.2420    7.0440   -1.5560 n         1 MOL     -0.615349
     70 C22        -1.0460    7.4420   -1.0770 c3        1 MOL      0.035220
     71 C23        -1.7740    6.1440   -0.6140 c         1 MOL      0.654974
     72 O13        -2.8420    5.8940   -1.0970 o         1 MOL     -0.566505
     73 C24        -0.9250    8.5870    0.0400 c3        1 MOL      0.365388
     74 C25        -2.2250    9.2040    0.3690 c3        1 MOL     -0.347509
     75 O14        -0.2750    8.1610    1.1760 oh        1 MOL     -0.593221
     76 H29         0.9960    7.0000   -0.8860 hn        1 MOL      0.306980
     77 H30        -1.5900    7.8100   -1.9540 h1        1 MOL      0.090377
     78 H31        -0.3270    9.3900   -0.4110 h1        1 MOL     -0.010741
     79 H32        -0.5110    8.8820    1.7630 ho        1 MOL      0.384762
     80 H33        -3.0400    8.7330   -0.1770 hc        1 MOL      0.079659
     81 H34        -2.4640    9.0440    1.4210 hc        1 MOL      0.079659
     82 H35        -2.0770   10.2580    0.1500 hc        1 MOL      0.079659
     83 N9         -1.1020    5.4030    0.2700 n         1 MOL     -0.439394
     84 C26        -1.5410    4.1660    0.9430 c3        1 MOL     -0.047149
     85 C27        -1.4130    2.8760   -0.0250 c         1 MOL      0.473678
     86 O15        -0.9400    3.0070   -1.1130 o         1 MOL     -0.406144
     87 C28        -0.6380    3.9420    2.2080 c3        1 MOL      0.161721
     88 C29         0.8370    3.7180    1.8950 c3        1 MOL     -0.307775
     89 C30        -0.8740    5.1340    3.0950 c3        1 MOL     -0.146119
     90 C31         1.7040    3.3380    3.1100 c3        1 MOL     -0.276358
     91 H36        -0.2060    5.7510    0.5770 hn        1 MOL      0.245070
     92 H37        -2.5630    4.2490    1.2950 h1        1 MOL      0.063141
     93 H38        -1.0910    3.0980    2.7240 hc        1 MOL      0.019206
     94 H39         1.4070    4.5560    1.4910 hc        1 MOL      0.199621
     95 H40         0.9270    2.9000    1.1800 hc        1 MOL      0.199621
     96 H41        -0.4190    4.9270    4.0660 hc        1 MOL      0.022531
     97 H42        -0.6240    6.1140    2.6850 hc        1 MOL      0.022531
     98 H43        -1.9490    5.1560    3.3010 hc        1 MOL      0.022531
     99 H44         2.7170    3.0470    2.8350 hc        1 MOL      0.087753
    100 H45         1.8040    4.2800    3.6360 hc        1 MOL      0.087753
    101 H46         1.2620    2.5030    3.6610 hc        1 MOL      0.087753
    102 N10        -2.0120    1.8500    0.4230 n         1 MOL     -0.549438
    103 C32        -2.1460    0.5460   -0.2630 c3        1 MOL      0.228204
    104 C33        -3.6030   -0.0060   -0.2510 c         1 MOL      0.570312
    105 O16        -3.7930   -1.1520   -0.5480 o         1 MOL     -0.531828
    106 C34        -1.1040   -0.4230    0.3310 c3        1 MOL      0.078679
    107 C35        -0.5960   -1.4520   -0.7400 c         1 MOL      0.372598
    108 O17         0.3670   -2.1700   -0.4330 o         1 MOL     -0.637564
    109 O18        -1.0640   -1.5280   -1.9100 o         1 MOL     -0.637564
    110 H47        -2.3690    1.9750    1.3550 hn        1 MOL      0.235753
    111 H48        -1.8980    0.6850   -1.3140 h1        1 MOL     -0.005973
    112 H49        -1.4640   -0.9310    1.2210 hc        1 MOL     -0.000606
    113 H50        -0.3180    0.2890    0.5990 hc        1 MOL     -0.000606
    114 N11        -4.6170    0.8180    0.0150 n         1 MOL     -0.502637
    115 C36        -6.0370    0.4420    0.0540 c3        1 MOL      0.238002
    116 C37        -6.3540   -0.8580    0.8200 c         1 MOL      0.200444
    117 O19        -5.9300   -0.8950    1.9990 o         1 MOL     -0.392040
    118 C38        -6.9370    1.5200    0.5990 c3        1 MOL     -0.352915
    119 C39        -8.3440    1.0800    0.8270 ca        1 MOL      0.255981
    120 C40        -9.1760    1.0490   -0.2960 ca        1 MOL     -0.289501
    121 C41        -8.8340    0.5480    2.0290 ca        1 MOL     -0.289501
    122 C42       -10.4990    0.5940   -0.1870 ca        1 MOL     -0.008618
    123 C43       -10.1730    0.0460    2.1120 ca        1 MOL     -0.008618
    124 C44       -11.0520    0.2000    0.9980 ca        1 MOL     -0.216644
    125 H51        -4.4410    1.8070   -0.0970 hn        1 MOL      0.301613
    126 H52        -6.3410    0.3680   -0.9880 h1        1 MOL      0.019334
    127 H53        -7.0090    2.3720   -0.0770 hc        1 MOL      0.116608
    128 H54        -6.5770    1.8950    1.5490 hc        1 MOL      0.116608
    129 H55        -8.8490    1.2360   -1.3090 ha        1 MOL      0.161526
    130 H56        -8.2680    0.4740    2.9510 ha        1 MOL      0.161526
    131 H57       -11.1040    0.5610   -1.0890 ha        1 MOL      0.085915
    132 H58       -10.5650   -0.1860    3.0890 ha        1 MOL      0.085915
    133 H59       -12.0770   -0.1090    1.0990 ha        1 MOL      0.124999
    134 N12        -6.9870   -1.9570    0.2330 n         1 MOL     -0.065402
    135 C45        -7.2630   -3.1840    0.9830 c3        1 MOL      0.177513
    136 C46        -5.9950   -3.8170    1.6830 c         1 MOL      0.210492
    137 O20        -6.1680   -4.4580    2.6990 o         1 MOL     -0.485750
    138 C47        -7.6850   -4.0980   -0.1760 c3        1 MOL     -0.126723
    139 C48        -8.4030   -3.2260   -1.1760 c3        1 MOL      0.029657
    140 C49        -7.5300   -1.9940   -1.1320 c3        1 MOL      0.059880
    141 H60        -8.0550   -3.0710    1.7100 h1        1 MOL      0.037735
    142 H61        -6.8190   -4.4530   -0.7340 hc        1 MOL      0.046680
    143 H62        -8.2950   -4.9290    0.1970 hc        1 MOL      0.046680
    144 H63        -8.4770   -3.6030   -2.2010 hc        1 MOL     -0.005311
    145 H64        -9.4110   -2.9470   -0.8670 hc        1 MOL     -0.005311
    146 H65        -6.7690   -2.1310   -1.8920 h1        1 MOL      0.014929
    147 H66        -8.1090   -1.1080   -1.3940 h1        1 MOL      0.014929
    148 N13        -4.7850   -3.7210    1.1980 n         1 MOL     -0.010144
    149 C50        -3.6120   -4.1570    1.8850 c3        1 MOL     -0.361274
    150 C51        -3.3810   -3.2260    3.1620 c         1 MOL      0.438320
    151 O21        -2.7780   -3.7410    4.1120 o         1 MOL     -0.562831
    152 C52        -2.3760   -4.0600    0.9440 c3        1 MOL      0.006973
    153 C53        -2.4130   -5.0710   -0.1720 c3        1 MOL      0.032920
    154 C54        -1.3660   -4.8870   -1.2630 c         1 MOL      0.679535
    155 O22        -0.2000   -5.1040   -1.1240 o         1 MOL     -0.771758
    156 O23        -1.8080   -4.4350   -2.3580 o         1 MOL     -0.771758
    157 H67        -4.5500   -3.2170    0.3500 hn        1 MOL      0.217526
    158 H68        -3.7320   -5.1930    2.1800 h1        1 MOL      0.162586
    159 H69        -1.4240   -4.2560    1.4260 hc        1 MOL      0.109160
    160 H70        -2.3780   -3.0270    0.5920 hc        1 MOL      0.109160
    161 H71        -3.3980   -5.0660   -0.6340 hc        1 MOL     -0.042162
    162 H72        -2.1670   -6.0380    0.2680 hc        1 MOL     -0.042162
    163 N14        -3.8110   -1.9840    3.2010 n         1 MOL      0.069301
    164 C55        -3.6020   -0.9820    4.2310 c3        1 MOL     -0.300214
    165 H73        -2.6270   -1.1350    4.6930 h1        1 MOL      0.099839
    166 H74        -3.6400    0.0120    3.7850 h1        1 MOL      0.099839
    167 H75        -4.3810   -1.0700    4.9890 h1        1 MOL      0.099839
    168 H76        -4.4210   -1.6850    2.4450 hn        1 MOL      0.010657
    169 Ca1         0.6490   -3.2820   -2.8060 Ca        1 MOL      1.695504
    170 O24         1.4430   -5.4920   -3.8550 oh        1 MOL     -0.851473
    171 H77         1.1270   -6.3940   -3.8140 ho        1 MOL      0.414860
    172 H78         2.3180   -5.5200   -3.4780 ho        1 MOL      0.414860
    173 O25        -0.7870   -2.3710   -4.8210 oh        1 MOL     -0.851473
    174 H79        -1.3390   -1.6890   -4.4530 ho        1 MOL      0.414860
    175 H80        -1.2680   -2.6810   -5.5920 ho        1 MOL      0.414860
    176 O26         1.9560   -2.7140   -5.0710 oh        1 MOL     -0.851473
    177 H81         1.5860   -2.9780   -5.9150 ho        1 MOL      0.414860
    178 H82         2.8730   -2.9740   -5.1190 ho        1 MOL      0.414860
@<TRIPOS>BOND
     1    1    2 1   
     2    1    4 1   
     3    1    5 1   
     4    1    6 1   
     5    2    3 2   
     6    2    7 1   
     7    7    8 1   
     8    7   15 1   
     9    8    9 1   
    10    8   11 1   
    11    8   16 1   
    12    9   10 2   
    13    9   19 1   
    14   11   12 1   
    15   11   17 1   
    16   11   18 1   
    17   12   13 1   
    18   12   14 1   
    19   19   20 1   
    20   19   24 1   
    21   20   21 1   
    22   20   23 1   
    23   20   25 1   
    24   21   22 2   
    25   21   29 1   
    26   23   26 1   
    27   23   27 1   
    28   23   28 1   
    29   29   30 1   
    30   29   37 1   
    31   30   31 1   
    32   30   33 1   
    33   30   38 1   
    34   31   32 2   
    35   31   41 1   
    36   33   34 1   
    37   33   39 1   
    38   33   40 1   
    39   34   35 1   
    40   34   36 1   
    41   41   42 1   
    42   41   45 1   
    43   42   43 1   
    44   42   46 1   
    45   42   47 1   
    46   43   44 2   
    47   43   48 1   
    48   48   49 1   
    49   48   56 1   
    50   49   50 1   
    51   49   52 1   
    52   49   57 1   
    53   50   51 2   
    54   50   62 1   
    55   52   53 1   
    56   52   58 1   
    57   52   59 1   
    58   53   54 1   
    59   53   55 2   
    60   54   60 1   
    61   54   61 1   
    62   62   63 1   
    63   62   66 1   
    64   63   64 1   
    65   63   67 1   
    66   63   68 1   
    67   64   65 2   
    68   64   69 1   
    69   69   70 1   
    70   69   76 1   
    71   70   71 1   
    72   70   73 1   
    73   70   77 1   
    74   71   72 2   
    75   71   83 1   
    76   73   74 1   
    77   73   75 1   
    78   73   78 1   
    79   74   80 1   
    80   74   81 1   
    81   74   82 1   
    82   75   79 1   
    83   83   84 1   
    84   83   91 1   
    85   84   85 1   
    86   84   87 1   
    87   84   92 1   
    88   85   86 2   
    89   85  102 1   
    90   87   88 1   
    91   87   89 1   
    92   87   93 1   
    93   88   90 1   
    94   88   94 1   
    95   88   95 1   
    96   89   96 1   
    97   89   97 1   
    98   89   98 1   
    99   90   99 1   
   100   90  100 1   
   101   90  101 1   
   102  102  103 1   
   103  102  110 1   
   104  103  104 1   
   105  103  106 1   
   106  103  111 1   
   107  104  105 2   
   108  104  114 1   
   109  106  107 1   
   110  106  112 1   
   111  106  113 1   
   112  107  108 1   
   113  107  109 1   
   114  114  115 1   
   115  114  125 1   
   116  115  116 1   
   117  115  118 1   
   118  115  126 1   
   119  116  117 2   
   120  116  134 1   
   121  118  119 1   
   122  118  127 1   
   123  118  128 1   
   124  119  120 ar  
   125  119  121 ar  
   126  120  122 ar  
   127  120  129 1   
   128  121  123 ar  
   129  121  130 1   
   130  122  124 ar  
   131  122  131 1   
   132  123  124 ar  
   133  123  132 1   
   134  124  133 1   
   135  134  135 1   
   136  134  140 1   
   137  135  136 1   
   138  135  138 1   
   139  135  141 1   
   140  136  137 2   
   141  136  148 1   
   142  138  139 1   
   143  138  142 1   
   144  138  143 1   
   145  139  140 1   
   146  139  144 1   
   147  139  145 1   
   148  140  146 1   
   149  140  147 1   
   150  148  149 1   
   151  148  157 1   
   152  149  150 1   
   153  149  152 1   
   154  149  158 1   
   155  150  151 2   
   156  150  163 1   
   157  152  153 1   
   158  152  159 1   
   159  152  160 1   
   160  153  154 1   
   161  153  161 1   
   162  153  162 1   
   163  154  155 1   
   164  154  156 1   
   165  163  164 1   
   166  163  168 1   
   167  164  165 1   
   168  164  166 1   
   169  164  167 1   
   170  170  171 1   
   171  170  172 1   
   172  173  174 1   
   173  173  175 1   
   174  176  177 1   
   175  176  178 1   
@<TRIPOS>SUBSTRUCTURE
     1 MOL         1 TEMP              0 ****  ****    0 ROOT
