@<TRIPOS>MOLECULE
MOL
  178   175     1     0     0
SMALL
resp


@<TRIPOS>ATOM
      1 C1         -4.4160   -2.4620   -4.5100 c3        1 MOL     -0.421399
      2 C2         -5.6600   -1.7860   -3.9170 c         1 MOL      0.786464
      3 O1         -5.7380   -0.5280   -3.9270 o         1 MOL     -0.631671
      4 H1         -3.9290   -3.0630   -3.7420 hc        1 MOL      0.102904
      5 H2         -4.7110   -3.1040   -5.3400 hc        1 MOL      0.102904
      6 H3         -3.7230   -1.7000   -4.8680 hc        1 MOL      0.102904
      7 N1         -6.6360   -2.5230   -3.4180 n         1 MOL     -0.624844
      8 C3         -7.8620   -1.9700   -2.8520 c3        1 MOL      0.149633
      9 C4         -7.6820   -1.6210   -1.3450 c         1 MOL      0.656328
     10 O2         -7.2150   -2.3980   -0.5410 o         1 MOL     -0.577188
     11 C5         -8.9880   -2.9540   -2.9830 c3        1 MOL     -0.115812
     12 C6        -10.4000   -2.5290   -2.5520 c         1 MOL      0.677285
     13 O3        -11.1800   -2.0870   -3.4250 o         1 MOL     -0.725791
     14 O4        -10.6970   -2.5860   -1.3550 o         1 MOL     -0.725791
     15 H4         -6.6340   -3.5230   -3.5750 hn        1 MOL      0.320364
     16 H5         -8.2650   -1.1410   -3.4260 h1        1 MOL      0.016665
     17 H6         -8.6320   -3.8470   -2.4530 hc        1 MOL     -0.009637
     18 H7         -9.0420   -3.3260   -4.0080 hc        1 MOL     -0.009637
     19 N2         -8.3290   -0.5020   -0.9260 n         1 MOL     -0.639404
     20 C7         -8.3180   -0.0300    0.4460 c3        1 MOL      0.311000
     21 C8         -6.8930    0.1200    1.0100 c         1 MOL      0.648428
     22 O5         -6.1330    0.8870    0.4900 o         1 MOL     -0.554235
     23 C9         -9.0550    1.2810    0.7800 c3        1 MOL     -0.314240
     24 H8         -8.9170   -0.0650   -1.6310 hn        1 MOL      0.337874
     25 H9         -8.8380   -0.7810    1.0460 h1        1 MOL      0.032813
     26 H10        -8.5680    2.1260    0.2850 hc        1 MOL      0.065639
     27 H11       -10.0580    1.1820    0.3690 hc        1 MOL      0.065639
     28 H12        -9.0690    1.5020    1.8420 hc        1 MOL      0.065639
     29 N3         -6.5870   -0.7300    2.0160 n         1 MOL     -0.644290
     30 C10        -5.1450   -1.0240    2.4260 c3        1 MOL      0.246923
     31 C11        -4.7950   -0.3610    3.7720 c         1 MOL      0.451024
     32 O6         -5.6650   -0.2230    4.6410 o         1 MOL     -0.523286
     33 C12        -4.9590   -2.4980    2.4810 c3        1 MOL      0.017685
     34 C13        -3.4930   -2.9750    2.4070 c         1 MOL      0.625514
     35 O7         -3.0280   -3.7690    3.2630 o         1 MOL     -0.753141
     36 O8         -2.8370   -2.7530    1.3520 o         1 MOL     -0.753141
     37 H13        -7.2950   -1.3140    2.4440 hn        1 MOL      0.286977
     38 H14        -4.3830   -0.6720    1.7240 h1        1 MOL      0.051448
     39 H15        -5.6200   -3.0650    1.8240 hc        1 MOL      0.008555
     40 H16        -5.3750   -2.8230    3.4330 hc        1 MOL      0.008555
     41 N4         -3.5030   -0.0030    3.8940 n         1 MOL     -0.442228
     42 C14        -2.9980    0.7300    5.0220 c3        1 MOL      0.157020
     43 C15        -2.7110    2.1730    4.7000 c         1 MOL      0.496519
     44 O9         -3.5580    2.8470    4.1670 o         1 MOL     -0.499196
     45 H17        -2.9390   -0.1330    3.0580 hn        1 MOL      0.321154
     46 H18        -2.0920    0.2000    5.3250 h1        1 MOL     -0.018339
     47 H19        -3.6650    0.7280    5.8860 h1        1 MOL     -0.018339
     48 N5         -1.4430    2.4850    4.7620 n         1 MOL     -0.553300
     49 C16        -0.9560    3.8290    4.2960 c3        1 MOL      0.196770
     50 C17        -1.0080    4.0960    2.7700 c         1 MOL      0.520319
     51 O10        -0.7910    3.1410    2.0560 o         1 MOL     -0.439827
     52 C18         0.4430    4.1020    4.8470 c3        1 MOL     -0.198353
     53 C19         0.7190    5.5430    5.1580 c         1 MOL      0.662046
     54 N6          1.1790    5.8310    6.3340 n         1 MOL     -0.754315
     55 O11         0.3850    6.3750    4.3990 o         1 MOL     -0.552615
     56 H20        -0.7090    1.9150    5.1430 hn        1 MOL      0.322555
     57 H21        -1.5420    4.6120    4.7970 h1        1 MOL      0.015508
     58 H22         1.1890    3.8120    4.1090 hc        1 MOL      0.033249
     59 H23         0.5630    3.5330    5.7650 hc        1 MOL      0.033249
     60 H24         1.4770    5.0580    6.9070 hn        1 MOL      0.347611
     61 H25         1.3790    6.8000    6.5160 hn        1 MOL      0.347611
     62 N7         -1.3890    5.2860    2.3270 n         1 MOL     -0.427045
     63 C20        -1.5690    5.6980    0.9320 c3        1 MOL     -0.010942
     64 C21        -0.2320    5.7740    0.1610 c         1 MOL      0.460279
     65 O12         0.8350    5.3360    0.5190 o         1 MOL     -0.478835
     66 H26        -1.6970    5.9350    3.0500 hn        1 MOL      0.275525
     67 H27        -2.0560    6.6640    0.7890 h1        1 MOL      0.075191
     68 H28        -2.2460    4.9690    0.4930 h1        1 MOL      0.075191
     69 N8         -0.3290    6.2800   -1.0220 n         1 MOL     -0.262786
     70 C22         0.7280    6.5110   -2.0530 c3        1 MOL     -0.314581
     71 C23         1.1290    5.1990   -2.7060 c         1 MOL      0.567392
     72 O13         2.1900    5.0860   -3.3180 o         1 MOL     -0.584022
     73 C24         0.4700    7.5890   -3.1050 c3        1 MOL      0.507909
     74 C25        -0.6830    7.3680   -4.1070 c3        1 MOL     -0.494148
     75 O14         0.1980    8.7840   -2.4460 oh        1 MOL     -0.626505
     76 H29        -1.1950    6.7370   -1.2810 hn        1 MOL      0.181476
     77 H30         1.6160    6.7880   -1.4890 h1        1 MOL      0.162876
     78 H31         1.4320    7.6110   -3.6130 h1        1 MOL      0.031277
     79 H32        -0.6620    8.6310   -2.0490 ho        1 MOL      0.375135
     80 H33        -0.7810    8.1610   -4.8510 hc        1 MOL      0.125347
     81 H34        -0.5230    6.4250   -4.6220 hc        1 MOL      0.125347
     82 H35        -1.6180    7.1530   -3.5830 hc        1 MOL      0.125347
     83 N9          0.2650    4.1710   -2.5910 n         1 MOL     -0.274252
     84 C26         0.5530    2.8270   -3.1690 c3        1 MOL     -0.043893
     85 C27         0.5090    1.7330   -2.0580 c         1 MOL      0.476890
     86 O15        -0.4870    1.6320   -1.2750 o         1 MOL     -0.450043
     87 C28        -0.6370    2.4820   -4.1660 c3        1 MOL      0.085243
     88 C29        -1.1430    3.6450   -5.1040 c3        1 MOL      0.074331
     89 C30        -0.1870    1.2490   -4.9510 c3        1 MOL      0.006568
     90 C31        -0.1400    4.0970   -6.1750 c3        1 MOL     -0.182489
     91 H36        -0.6660    4.3600   -2.2430 hn        1 MOL      0.194818
     92 H37         1.4740    2.7310   -3.7460 h1        1 MOL      0.091023
     93 H38        -1.5180    2.1440   -3.6160 hc        1 MOL      0.034987
     94 H39        -1.5660    4.4990   -4.5700 hc        1 MOL     -0.010826
     95 H40        -2.0000    3.2570   -5.6590 hc        1 MOL     -0.010826
     96 H41         0.7590    1.2540   -5.4890 hc        1 MOL     -0.006742
     97 H42        -0.2010    0.3250   -4.3660 hc        1 MOL     -0.006742
     98 H43        -0.9550    1.1390   -5.7150 hc        1 MOL     -0.006742
     99 H44        -0.0870    3.2680   -6.8840 hc        1 MOL      0.032983
    100 H45        -0.4700    5.0620   -6.5700 hc        1 MOL      0.032983
    101 H46         0.8880    4.1700   -5.8260 hc        1 MOL      0.032983
    102 N10         1.5540    0.8840   -2.0530 n         1 MOL     -0.490600
    103 C32         1.6520   -0.2100   -1.0910 c3        1 MOL      0.181939
    104 C33         3.0760   -0.4990   -0.5400 c         1 MOL      0.565533
    105 O16         3.3510   -1.6230   -0.1170 o         1 MOL     -0.499953
    106 C34         0.9330   -1.5080   -1.5300 c3        1 MOL     -0.188210
    107 C35         0.2930   -2.3460   -0.3960 c         1 MOL      0.795698
    108 O17         0.2020   -3.5510   -0.5190 o         1 MOL     -0.762955
    109 O18        -0.0420   -1.7750    0.7040 o         1 MOL     -0.762955
    110 H47         2.2540    0.9110   -2.7780 hn        1 MOL      0.275572
    111 H48         1.1070    0.1490   -0.2170 h1        1 MOL      0.038898
    112 H49         1.6570   -2.1360   -2.0440 hc        1 MOL      0.054321
    113 H50         0.1180   -1.3770   -2.2460 hc        1 MOL      0.054321
    114 N11         3.9370    0.5050   -0.6320 n         1 MOL     -0.516258
    115 C36         5.2370    0.4730   -0.0500 c3        1 MOL      0.348672
    116 C37         6.1080   -0.6700   -0.6500 c         1 MOL      0.307285
    117 O19         6.1640   -0.8900   -1.8870 o         1 MOL     -0.557934
    118 C38         5.9270    1.8450   -0.2650 c3        1 MOL     -0.383840
    119 C39         7.3440    1.9070    0.2510 ca        1 MOL      0.120578
    120 C40         7.6320    2.1780    1.6140 ca        1 MOL     -0.192586
    121 C41         8.3060    1.6150   -0.7470 ca        1 MOL     -0.192586
    122 C42         8.9850    2.1310    2.0060 ca        1 MOL     -0.082300
    123 C43         9.6310    1.6260   -0.3530 ca        1 MOL     -0.082300
    124 C44        10.0000    1.8530    0.9920 ca        1 MOL     -0.173230
    125 H51         3.6810    1.3380   -1.1530 hn        1 MOL      0.254778
    126 H52         5.1920    0.1800    0.9960 h1        1 MOL     -0.015040
    127 H53         5.4370    2.6240    0.3330 hc        1 MOL      0.146236
    128 H54         5.8960    2.0850   -1.3270 hc        1 MOL      0.146236
    129 H55         6.8380    2.3850    2.3230 ha        1 MOL      0.153297
    130 H56         8.0920    1.3720   -1.7760 ha        1 MOL      0.153297
    131 H57         9.2910    2.3640    3.0150 ha        1 MOL      0.105994
    132 H58        10.4050    1.4150   -1.0740 ha        1 MOL      0.105994
    133 H59        11.0290    1.7120    1.2950 ha        1 MOL      0.119091
    134 N12         6.8020   -1.4640    0.2120 n         1 MOL     -0.087426
    135 C45         7.7520   -2.4710   -0.3770 c3        1 MOL      0.252299
    136 C46         6.9630   -3.7220   -0.8280 c         1 MOL      0.097508
    137 O20         7.6560   -4.6870   -1.1580 o         1 MOL     -0.508369
    138 C47         8.7210   -2.8480    0.7230 c3        1 MOL     -0.146629
    139 C48         8.5120   -1.7660    1.7870 c3        1 MOL     -0.157247
    140 C49         7.0860   -1.2960    1.5950 c3        1 MOL      0.095499
    141 H60         8.3620   -2.1270   -1.2100 h1        1 MOL      0.062790
    142 H61         8.4310   -3.7860    1.2100 hc        1 MOL      0.072780
    143 H62         9.7620   -2.8540    0.4000 hc        1 MOL      0.072780
    144 H63         8.6270   -2.2580    2.7520 hc        1 MOL      0.045512
    145 H64         9.1370   -0.9010    1.5670 hc        1 MOL      0.045512
    146 H65         6.4980   -1.9050    2.2810 h1        1 MOL      0.019277
    147 H66         7.0230   -0.2520    1.8910 h1        1 MOL      0.019277
    148 N13         5.6180   -3.7530   -0.8490 n         1 MOL      0.231078
    149 C50         4.8270   -4.8250   -1.3950 c3        1 MOL     -0.202305
    150 C51         4.6800   -4.6140   -2.8870 c         1 MOL      0.444797
    151 O21         4.5890   -5.5790   -3.7000 o         1 MOL     -0.546057
    152 C52         3.5070   -5.0110   -0.6960 c3        1 MOL      0.144571
    153 C53         3.6120   -5.3120    0.8400 c3        1 MOL     -0.160865
    154 C54         2.2850   -5.2750    1.5500 c         1 MOL      0.599622
    155 O22         1.3700   -6.0000    1.2250 o         1 MOL     -0.707036
    156 O23         1.9490   -4.3140    2.2920 o         1 MOL     -0.707036
    157 H67         5.1250   -2.8840   -0.6870 hn        1 MOL     -0.075214
    158 H68         5.3570   -5.7510   -1.1870 h1        1 MOL      0.110045
    159 H69         2.8680   -5.7730   -1.1450 hc        1 MOL      0.027954
    160 H70         2.8970   -4.1110   -0.6140 hc        1 MOL      0.027954
    161 H71         4.3700   -4.6540    1.2720 hc        1 MOL      0.011011
    162 H72         3.9860   -6.3390    0.8820 hc        1 MOL      0.011011
    163 N14         4.5900   -3.3520   -3.4040 n         1 MOL     -0.244338
    164 C55         4.1870   -2.9960   -4.8060 c3        1 MOL     -0.142020
    165 H73         3.3370   -2.3140   -4.7770 h1        1 MOL      0.074593
    166 H74         5.0220   -2.5140   -5.3140 h1        1 MOL      0.074593
    167 H75         3.9060   -3.9010   -5.3450 h1        1 MOL      0.074593
    168 H76         4.8010   -2.5910   -2.7800 hn        1 MOL      0.253508
    169 Ca1        -0.6100   -4.1170    1.8810 Ca        1 MOL      1.785450
    170 O24        -0.0290   -5.6580    4.0430 oh        1 MOL     -0.856217
    171 H77        -0.2770   -6.5780    4.0930 ho        1 MOL      0.419958
    172 H78         0.3070   -5.4560    4.9160 ho        1 MOL      0.419958
    173 O25        -0.0330   -2.6640    4.0450 oh        1 MOL     -0.856217
    174 H79         0.4000   -1.8300    3.8730 ho        1 MOL      0.419958
    175 H80        -0.3670   -2.5840    4.9360 ho        1 MOL      0.419958
    176 O26        -1.9360   -6.2970    1.0850 oh        1 MOL     -0.856217
    177 H81        -1.5600   -7.1520    0.8950 ho        1 MOL      0.419958
    178 H82        -2.8700   -6.3910    0.8830 ho        1 MOL      0.419958
@<TRIPOS>BOND
     1    1    2 1   
     2    1    4 1   
     3    1    5 1   
     4    1    6 1   
     5    2    3 2   
     6    2    7 1   
     7    7    8 1   
     8    7   15 1   
     9    8    9 1   
    10    8   11 1   
    11    8   16 1   
    12    9   10 2   
    13    9   19 1   
    14   11   12 1   
    15   11   17 1   
    16   11   18 1   
    17   12   13 1   
    18   12   14 1   
    19   19   20 1   
    20   19   24 1   
    21   20   21 1   
    22   20   23 1   
    23   20   25 1   
    24   21   22 2   
    25   21   29 1   
    26   23   26 1   
    27   23   27 1   
    28   23   28 1   
    29   29   30 1   
    30   29   37 1   
    31   30   31 1   
    32   30   33 1   
    33   30   38 1   
    34   31   32 2   
    35   31   41 1   
    36   33   34 1   
    37   33   39 1   
    38   33   40 1   
    39   34   35 1   
    40   34   36 1   
    41   41   42 1   
    42   41   45 1   
    43   42   43 1   
    44   42   46 1   
    45   42   47 1   
    46   43   44 2   
    47   43   48 1   
    48   48   49 1   
    49   48   56 1   
    50   49   50 1   
    51   49   52 1   
    52   49   57 1   
    53   50   51 2   
    54   50   62 1   
    55   52   53 1   
    56   52   58 1   
    57   52   59 1   
    58   53   54 1   
    59   53   55 2   
    60   54   60 1   
    61   54   61 1   
    62   62   63 1   
    63   62   66 1   
    64   63   64 1   
    65   63   67 1   
    66   63   68 1   
    67   64   65 2   
    68   64   69 1   
    69   69   70 1   
    70   69   76 1   
    71   70   71 1   
    72   70   73 1   
    73   70   77 1   
    74   71   72 2   
    75   71   83 1   
    76   73   74 1   
    77   73   75 1   
    78   73   78 1   
    79   74   80 1   
    80   74   81 1   
    81   74   82 1   
    82   75   79 1   
    83   83   84 1   
    84   83   91 1   
    85   84   85 1   
    86   84   87 1   
    87   84   92 1   
    88   85   86 2   
    89   85  102 1   
    90   87   88 1   
    91   87   89 1   
    92   87   93 1   
    93   88   90 1   
    94   88   94 1   
    95   88   95 1   
    96   89   96 1   
    97   89   97 1   
    98   89   98 1   
    99   90   99 1   
   100   90  100 1   
   101   90  101 1   
   102  102  103 1   
   103  102  110 1   
   104  103  104 1   
   105  103  106 1   
   106  103  111 1   
   107  104  105 2   
   108  104  114 1   
   109  106  107 1   
   110  106  112 1   
   111  106  113 1   
   112  107  108 1   
   113  107  109 1   
   114  114  115 1   
   115  114  125 1   
   116  115  116 1   
   117  115  118 1   
   118  115  126 1   
   119  116  117 2   
   120  116  134 1   
   121  118  119 1   
   122  118  127 1   
   123  118  128 1   
   124  119  120 ar  
   125  119  121 ar  
   126  120  122 ar  
   127  120  129 1   
   128  121  123 ar  
   129  121  130 1   
   130  122  124 ar  
   131  122  131 1   
   132  123  124 ar  
   133  123  132 1   
   134  124  133 1   
   135  134  135 1   
   136  134  140 1   
   137  135  136 1   
   138  135  138 1   
   139  135  141 1   
   140  136  137 2   
   141  136  148 1   
   142  138  139 1   
   143  138  142 1   
   144  138  143 1   
   145  139  140 1   
   146  139  144 1   
   147  139  145 1   
   148  140  146 1   
   149  140  147 1   
   150  148  149 1   
   151  148  157 1   
   152  149  150 1   
   153  149  152 1   
   154  149  158 1   
   155  150  151 2   
   156  150  163 1   
   157  152  153 1   
   158  152  159 1   
   159  152  160 1   
   160  153  154 1   
   161  153  161 1   
   162  153  162 1   
   163  154  155 1   
   164  154  156 1   
   165  163  164 1   
   166  163  168 1   
   167  164  165 1   
   168  164  166 1   
   169  164  167 1   
   170  170  171 1   
   171  170  172 1   
   172  173  174 1   
   173  173  175 1   
   174  176  177 1   
   175  176  178 1   
@<TRIPOS>SUBSTRUCTURE
     1 MOL         1 TEMP              0 ****  ****    0 ROOT
