@<TRIPOS>MOLECULE
MOL
  181   177     1     0     0
SMALL
resp


@<TRIPOS>ATOM
      1 C1         -6.2130   -6.8110   -4.3390 c3        1 MOL     -0.280123
      2 C2         -5.5630   -5.4060   -4.2630 c         1 MOL      0.674420
      3 O1         -4.6800   -5.0830   -5.0250 o         1 MOL     -0.568464
      4 H1         -6.3340   -7.0990   -5.3830 hc        1 MOL      0.062430
      5 H2         -5.5740   -7.5350   -3.8340 hc        1 MOL      0.062430
      6 H3         -7.1900   -6.7870   -3.8540 hc        1 MOL      0.062430
      7 N1         -5.9670   -4.4700   -3.3950 n         1 MOL     -0.568891
      8 C3         -7.0500   -4.7330   -2.4270 c3        1 MOL      0.266347
      9 C4         -6.3850   -5.1390   -1.0700 c         1 MOL      0.312998
     10 O2         -5.1700   -5.1680   -0.9820 o         1 MOL     -0.384256
     11 C5         -7.9690   -3.4650   -2.3130 c3        1 MOL     -0.316627
     12 C6         -7.3790   -2.2170   -1.6560 c         1 MOL      0.940447
     13 O3         -7.3640   -2.1240   -0.4380 o         1 MOL     -0.825232
     14 O4         -7.1280   -1.2290   -2.4030 o         1 MOL     -0.825232
     15 H4         -5.3700   -3.6810   -3.2320 hn        1 MOL      0.364712
     16 H5         -7.7260   -5.5150   -2.7620 h1        1 MOL      0.019021
     17 H6         -8.8570   -3.7070   -1.7330 hc        1 MOL      0.043213
     18 H7         -8.2800   -3.1600   -3.3110 hc        1 MOL      0.043213
     19 N2         -7.2210   -5.2730    0.0110 n         1 MOL     -0.523913
     20 C7         -6.7910   -5.4680    1.3840 c3        1 MOL      0.543138
     21 C8         -5.5080   -4.7070    1.8740 c         1 MOL      0.314133
     22 O5         -4.8300   -5.3010    2.7530 o         1 MOL     -0.514919
     23 C9         -6.9320   -6.8670    1.9020 c3        1 MOL     -0.397225
     24 H8         -8.2010   -5.3090   -0.2270 hn        1 MOL      0.272049
     25 H9         -7.5540   -4.9770    1.9880 h1        1 MOL     -0.050149
     26 H10        -6.1940   -7.5170    1.4380 hc        1 MOL      0.082467
     27 H11        -6.7590   -6.8760    2.9750 hc        1 MOL      0.082467
     28 H12        -7.9180   -7.1990    1.5730 hc        1 MOL      0.082467
     29 N3         -5.2320   -3.4880    1.3060 n         1 MOL     -0.238944
     30 C10        -4.0180   -2.6820    1.6690 c3        1 MOL      0.115819
     31 C11        -4.4320   -1.3140    2.1930 c         1 MOL      0.473629
     32 O6         -5.5970   -0.9550    2.0980 o         1 MOL     -0.546001
     33 C12        -3.1160   -2.6460    0.4430 c3        1 MOL     -0.234218
     34 C13        -3.7410   -2.1070   -0.9070 c         1 MOL      0.597841
     35 O7         -4.6610   -1.2660   -0.8120 o         1 MOL     -0.614290
     36 O8         -3.2850   -2.4580   -2.0050 o         1 MOL     -0.614290
     37 H13        -5.7990   -3.1980    0.5270 hn        1 MOL      0.075368
     38 H14        -3.4990   -3.1950    2.4840 h1        1 MOL      0.057542
     39 H15        -2.7710   -3.6760    0.3860 hc        1 MOL      0.083882
     40 H16        -2.2180   -2.0550    0.6450 hc        1 MOL      0.083882
     41 N4         -3.4520   -0.6440    2.7810 n         1 MOL     -0.447402
     42 C14        -3.5390    0.6550    3.3770 c3        1 MOL     -0.005665
     43 C15        -3.9400    1.8670    2.5060 c         1 MOL      0.569164
     44 O9         -4.3900    1.6820    1.3800 o         1 MOL     -0.572463
     45 H17        -2.5100   -0.9790    2.6360 hn        1 MOL      0.327728
     46 H18        -2.5860    0.8930    3.8460 h1        1 MOL      0.076594
     47 H19        -4.2330    0.6610    4.2090 h1        1 MOL      0.076594
     48 N5         -3.7610    3.0950    3.0700 n         1 MOL     -0.488376
     49 C16        -4.0940    4.3440    2.3820 c3        1 MOL      0.111109
     50 C17        -3.1230    4.6300    1.2400 c         1 MOL      0.508268
     51 O10        -1.8980    4.5680    1.4710 o         1 MOL     -0.415711
     52 C18        -4.0930    5.5050    3.3150 c3        1 MOL     -0.376703
     53 C19        -5.1950    5.5050    4.3950 c         1 MOL      0.744249
     54 N6         -6.3040    6.2070    4.1650 n         1 MOL     -0.817296
     55 O11        -5.0840    4.8000    5.4130 o         1 MOL     -0.567144
     56 H20        -3.3400    3.1550    3.9900 hn        1 MOL      0.297110
     57 H21        -5.1160    4.2570    1.9970 h1        1 MOL      0.023628
     58 H22        -4.2580    6.4180    2.7250 hc        1 MOL      0.124732
     59 H23        -3.1580    5.5160    3.8840 hc        1 MOL      0.124732
     60 H24        -6.4150    6.8510    3.4010 hn        1 MOL      0.359727
     61 H25        -7.1330    6.0450    4.7190 hn        1 MOL      0.359727
     62 N7         -3.6010    4.8690   -0.0210 n         1 MOL     -0.400837
     63 C20        -2.6910    5.1530   -1.1480 c3        1 MOL      0.037956
     64 C21        -2.1050    6.5520   -0.9950 c         1 MOL      0.528698
     65 O12        -2.7550    7.5140   -0.5830 o         1 MOL     -0.578823
     66 H26        -4.5790    4.6940   -0.2170 hn        1 MOL      0.202369
     67 H27        -3.1140    5.0240   -2.1410 h1        1 MOL      0.067381
     68 H28        -1.8670    4.4380   -1.1280 h1        1 MOL      0.067381
     69 N8         -0.9010    6.7790   -1.5570 n         1 MOL     -0.456937
     70 C22        -0.0370    5.8560   -2.2910 c3        1 MOL     -0.148716
     71 C23         0.7770    5.0680   -1.3430 c         1 MOL      0.535729
     72 O13         1.2270    5.6280   -0.3500 o         1 MOL     -0.541736
     73 C24         0.7600    6.6130   -3.3160 c3        1 MOL      0.483389
     74 C25         1.4200    5.7210   -4.3810 c3        1 MOL     -0.199858
     75 O14         0.0700    7.5950   -4.0380 oh        1 MOL     -0.635191
     76 H29        -0.6220    7.7500   -1.5750 hn        1 MOL      0.296683
     77 H30        -0.6790    5.2110   -2.8870 h1        1 MOL      0.079105
     78 H31         1.6160    7.0700   -2.8220 h1        1 MOL     -0.041692
     79 H32         0.2120    8.4000   -3.5500 ho        1 MOL      0.372429
     80 H33         0.6210    5.0780   -4.7550 hc        1 MOL      0.053466
     81 H34         1.8720    6.3200   -5.1790 hc        1 MOL      0.053466
     82 H35         2.1710    5.0810   -3.9200 hc        1 MOL      0.053466
     83 N9          1.0800    3.7730   -1.5900 n         1 MOL     -0.212820
     84 C26         2.1560    2.9280   -0.9670 c3        1 MOL     -0.110502
     85 C27         3.0520    2.3490   -2.0510 c         1 MOL      0.586154
     86 O15         2.6990    2.3290   -3.2840 o         1 MOL     -0.586540
     87 C28         1.6410    1.8460   -0.0250 c3        1 MOL      0.224914
     88 C29         0.4830    0.9400   -0.5650 c3        1 MOL     -0.109506
     89 C30         1.2820    2.3870    1.3420 c3        1 MOL     -0.349485
     90 C31        -1.0190    1.4490   -0.4880 c3        1 MOL     -0.279256
     91 H36         0.6320    3.4150   -2.4210 hn        1 MOL      0.148797
     92 H37         2.8490    3.6060   -0.4760 h1        1 MOL      0.128065
     93 H38         2.5060    1.2190    0.1770 hc        1 MOL     -0.047892
     94 H39         0.4720    0.0600    0.0710 hc        1 MOL      0.077501
     95 H40         0.7940    0.5770   -1.5330 hc        1 MOL      0.077501
     96 H41         0.7680    1.6460    1.9610 hc        1 MOL      0.086226
     97 H42         2.1700    2.7240    1.8760 hc        1 MOL      0.086226
     98 H43         0.6110    3.2180    1.1500 hc        1 MOL      0.086226
     99 H44        -1.2260    2.3500   -1.0720 hc        1 MOL      0.074551
    100 H45        -1.6680    0.6700   -0.8660 hc        1 MOL      0.074551
    101 H46        -1.2650    1.7210    0.5450 hc        1 MOL      0.074551
    102 N10         4.3350    1.8690   -1.7660 n         1 MOL     -0.521671
    103 C32         5.0440    1.9840   -0.4420 c3        1 MOL      0.069133
    104 C33         6.0320    0.8080   -0.2740 c         1 MOL      1.064310
    105 O16         6.2230    0.0020   -1.1630 o         1 MOL     -0.630735
    106 C34         5.6060    3.4240   -0.3260 c3        1 MOL     -0.396943
    107 C35         6.7240    3.7460   -1.3490 c         1 MOL      0.839749
    108 O17         7.4350    4.7080   -1.0570 o         1 MOL     -0.726322
    109 O18         6.9330    3.0320   -2.3250 o         1 MOL     -0.726322
    110 H47         4.7150    1.2440   -2.4510 hn        1 MOL      0.312878
    111 H48         4.4020    1.9330    0.4400 h1        1 MOL      0.024395
    112 H49         5.9910    3.5140    0.6910 hc        1 MOL      0.057620
    113 H50         4.8640    4.1740   -0.6210 hc        1 MOL      0.057620
    114 N11         6.4980    0.5990    1.0000 n         1 MOL     -0.567465
    115 C36         7.2870   -0.5520    1.4830 c3        1 MOL      0.617251
    116 C37         6.6230   -1.2990    2.6700 c         1 MOL     -0.030310
    117 O19         6.1800   -0.5680    3.6060 o         1 MOL     -0.446133
    118 C38         8.7320   -0.1470    1.7690 c3        1 MOL     -0.274898
    119 C39         9.5860    0.1730    0.5120 ca        1 MOL      0.116240
    120 C40        10.4590   -0.8770    0.0090 ca        1 MOL     -0.168397
    121 C41         9.5270    1.3810   -0.1520 ca        1 MOL     -0.168397
    122 C42        11.2370   -0.6780   -1.1020 ca        1 MOL     -0.084379
    123 C43        10.3870    1.6200   -1.2510 ca        1 MOL     -0.084379
    124 C44        11.2230    0.5840   -1.7740 ca        1 MOL     -0.164810
    125 H51         6.2900    1.3930    1.5890 hn        1 MOL      0.235759
    126 H52         7.3310   -1.2820    0.6710 h1        1 MOL     -0.141073
    127 H53         9.2940   -1.0090    2.1480 hc        1 MOL      0.060366
    128 H54         8.7960    0.7040    2.4610 hc        1 MOL      0.060366
    129 H55        10.7080   -1.7450    0.5980 ha        1 MOL      0.095152
    130 H56         8.8780    2.1880    0.1600 ha        1 MOL      0.095152
    131 H57        11.9320   -1.4320   -1.4460 ha        1 MOL      0.096426
    132 H58        10.4750    2.6000   -1.7020 ha        1 MOL      0.096426
    133 H59        11.8350    0.7430   -2.6530 ha        1 MOL      0.105216
    134 N12         6.8320   -2.6450    2.9650 n         1 MOL      0.218077
    135 C45         7.6520   -3.5730    2.1290 c3        1 MOL     -0.271370
    136 C46         6.9710   -3.9730    0.7940 c         1 MOL      0.643816
    137 O20         7.4960   -4.7540    0.0240 o         1 MOL     -0.586030
    138 C47         7.9530   -4.8470    3.0540 c3        1 MOL     -0.111681
    139 C48         6.7870   -4.8710    4.0450 c3        1 MOL     -0.102906
    140 C49         6.3260   -3.3940    4.1270 c3        1 MOL     -0.029323
    141 H60         8.6350   -3.1560    1.8980 h1        1 MOL      0.089440
    142 H61         7.9470   -5.7590    2.4570 hc        1 MOL      0.056436
    143 H62         8.9070   -4.7270    3.5760 hc        1 MOL      0.056436
    144 H63         6.0590   -5.5570    3.6170 hc        1 MOL      0.056860
    145 H64         7.0950   -5.2700    5.0120 hc        1 MOL      0.056860
    146 H65         5.2480   -3.3020    4.2500 h1        1 MOL      0.044963
    147 H66         6.7280   -2.9700    5.0570 h1        1 MOL      0.044963
    148 N13         5.7830   -3.4460    0.4390 n         1 MOL     -0.206442
    149 C50         4.9790   -3.6990   -0.8050 c3        1 MOL      0.009720
    150 C51         5.1150   -5.1340   -1.3590 c         1 MOL      0.380781
    151 O21         4.4430   -6.0940   -0.8470 o         1 MOL     -0.555815
    152 C52         3.4870   -3.5220   -0.4620 c3        1 MOL     -0.073068
    153 C53         3.1920   -2.0820   -0.1580 c3        1 MOL     -0.002433
    154 C54         2.8680   -1.8170    1.3450 c         1 MOL      0.640490
    155 O22         1.7560   -1.3410    1.6600 o         1 MOL     -0.649932
    156 O23         3.7680   -1.9350    2.1870 o         1 MOL     -0.649932
    157 H67         5.3640   -2.8600    1.1490 hn        1 MOL      0.110547
    158 H68         5.3240   -3.0610   -1.6190 h1        1 MOL      0.133536
    159 H69         3.2200   -4.0220    0.4680 hc        1 MOL      0.056049
    160 H70         2.8800   -3.9750   -1.2450 hc        1 MOL      0.056049
    161 H71         2.3780   -1.7410   -0.7960 hc        1 MOL     -0.076913
    162 H72         4.0340   -1.4640   -0.4640 hc        1 MOL     -0.076913
    163 N14         5.8930   -5.3570   -2.4230 n         1 MOL     -0.308411
    164 C55         6.8540   -4.5250   -3.1500 c3        1 MOL     -0.006603
    165 H73         7.7220   -4.3370   -2.5170 h1        1 MOL      0.039377
    166 H74         7.1720   -5.0420   -4.0550 h1        1 MOL      0.039377
    167 H75         6.3870   -3.5770   -3.4160 h1        1 MOL      0.039377
    168 H76         5.7610   -6.3380   -2.6480 hn        1 MOL      0.244562
    169 Ca1        -6.6200    0.3000   -0.2250 Ca        1 MOL      1.810439
    170 O24        -5.2990    1.4830   -2.2450 oh        1 MOL     -0.852778
    171 O25        -7.7000    1.5360    2.0710 oh        1 MOL     -0.852778
    172 H77        -4.3890    1.3610   -2.5180 ho        1 MOL      0.416967
    173 H78        -8.4770    1.2300    2.5290 ho        1 MOL      0.416967
    174 H79        -5.7760    1.6600   -3.0540 ho        1 MOL      0.416967
    175 H80        -7.3640    2.2500    2.6140 ho        1 MOL      0.416967
    176 O26        -6.7090    3.0440    0.0030 oh        1 MOL     -0.852778
    177 H81        -6.2980    3.5890   -0.6680 ho        1 MOL      0.416967
    178 H82        -7.2490    3.6520    0.5050 ho        1 MOL      0.416967
    179 O27        -9.1660    0.5280   -0.8050 oh        1 MOL     -0.852778
    180 H83        -9.7220   -0.1820   -1.1400 ho        1 MOL      0.416967
    181 H84        -9.7020    1.3160   -0.8940 ho        1 MOL      0.416967
@<TRIPOS>BOND
     1    1    2 1   
     2    1    4 1   
     3    1    5 1   
     4    1    6 1   
     5    2    3 2   
     6    2    7 1   
     7    7    8 1   
     8    7   15 1   
     9    8    9 1   
    10    8   11 1   
    11    8   16 1   
    12    9   10 2   
    13    9   19 1   
    14   11   12 1   
    15   11   17 1   
    16   11   18 1   
    17   12   13 1   
    18   12   14 1   
    19   19   20 1   
    20   19   24 1   
    21   20   21 1   
    22   20   23 1   
    23   20   25 1   
    24   21   22 2   
    25   21   29 1   
    26   23   26 1   
    27   23   27 1   
    28   23   28 1   
    29   29   30 1   
    30   29   37 1   
    31   30   31 1   
    32   30   33 1   
    33   30   38 1   
    34   31   32 2   
    35   31   41 1   
    36   33   34 1   
    37   33   39 1   
    38   33   40 1   
    39   34   35 1   
    40   34   36 1   
    41   41   42 1   
    42   41   45 1   
    43   42   43 1   
    44   42   46 1   
    45   42   47 1   
    46   43   44 2   
    47   43   48 1   
    48   48   49 1   
    49   48   56 1   
    50   49   50 1   
    51   49   52 1   
    52   49   57 1   
    53   50   51 2   
    54   50   62 1   
    55   52   53 1   
    56   52   58 1   
    57   52   59 1   
    58   53   54 1   
    59   53   55 2   
    60   54   60 1   
    61   54   61 1   
    62   62   63 1   
    63   62   66 1   
    64   63   64 1   
    65   63   67 1   
    66   63   68 1   
    67   64   65 2   
    68   64   69 1   
    69   69   70 1   
    70   69   76 1   
    71   70   71 1   
    72   70   73 1   
    73   70   77 1   
    74   71   72 2   
    75   71   83 1   
    76   73   74 1   
    77   73   75 1   
    78   73   78 1   
    79   74   80 1   
    80   74   81 1   
    81   74   82 1   
    82   75   79 1   
    83   83   84 1   
    84   83   91 1   
    85   84   85 1   
    86   84   87 1   
    87   84   92 1   
    88   85   86 2   
    89   85  102 1   
    90   87   88 1   
    91   87   89 1   
    92   87   93 1   
    93   88   90 1   
    94   88   94 1   
    95   88   95 1   
    96   89   96 1   
    97   89   97 1   
    98   89   98 1   
    99   90   99 1   
   100   90  100 1   
   101   90  101 1   
   102  102  103 1   
   103  102  110 1   
   104  103  104 1   
   105  103  106 1   
   106  103  111 1   
   107  104  105 2   
   108  104  114 1   
   109  106  107 1   
   110  106  112 1   
   111  106  113 1   
   112  107  108 1   
   113  107  109 1   
   114  114  115 1   
   115  114  125 1   
   116  115  116 1   
   117  115  118 1   
   118  115  126 1   
   119  116  117 2   
   120  116  134 1   
   121  118  119 1   
   122  118  127 1   
   123  118  128 1   
   124  119  120 ar  
   125  119  121 ar  
   126  120  122 ar  
   127  120  129 1   
   128  121  123 ar  
   129  121  130 1   
   130  122  124 ar  
   131  122  131 1   
   132  123  124 ar  
   133  123  132 1   
   134  124  133 1   
   135  134  135 1   
   136  134  140 1   
   137  135  136 1   
   138  135  138 1   
   139  135  141 1   
   140  136  137 2   
   141  136  148 1   
   142  138  139 1   
   143  138  142 1   
   144  138  143 1   
   145  139  140 1   
   146  139  144 1   
   147  139  145 1   
   148  140  146 1   
   149  140  147 1   
   150  148  149 1   
   151  148  157 1   
   152  149  150 1   
   153  149  152 1   
   154  149  158 1   
   155  150  151 2   
   156  150  163 1   
   157  152  153 1   
   158  152  159 1   
   159  152  160 1   
   160  153  154 1   
   161  153  161 1   
   162  153  162 1   
   163  154  155 1   
   164  154  156 1   
   165  163  164 1   
   166  163  168 1   
   167  164  165 1   
   168  164  166 1   
   169  164  167 1   
   170  170  172 1   
   171  170  174 1   
   172  171  173 1   
   173  171  175 1   
   174  176  177 1   
   175  176  178 1   
   176  179  180 1   
   177  179  181 1   
@<TRIPOS>SUBSTRUCTURE
     1 MOL         1 TEMP              0 ****  ****    0 ROOT
