@<TRIPOS>MOLECULE
MOL
  195   189     1     0     0
SMALL
resp


@<TRIPOS>ATOM
      1 C1         -2.9560   -4.7820   -3.9400 c3        1 MOL     -0.364720
      2 C2         -3.6110   -4.2540   -2.6370 c         1 MOL      0.786631
      3 O1         -2.8930   -3.8460   -1.6920 o         1 MOL     -0.668100
      4 H1         -1.8730   -4.8090   -3.8180 hc        1 MOL      0.079618
      5 H2         -3.3220   -5.7880   -4.1490 hc        1 MOL      0.079618
      6 H3         -3.2120   -4.1230   -4.7690 hc        1 MOL      0.079618
      7 N1         -4.9370   -4.2170   -2.6670 n         1 MOL     -0.585685
      8 C3         -5.8120   -3.4260   -1.8020 c3        1 MOL      0.023889
      9 C4         -5.3540   -2.0250   -1.4840 c         1 MOL      0.446001
     10 O2         -5.3530   -1.5990   -0.3710 o         1 MOL     -0.453105
     11 C5         -6.1120   -4.2490   -0.4520 c3        1 MOL     -0.018853
     12 C6         -4.8280   -4.8190    0.1550 c         1 MOL      0.767229
     13 O3         -4.5770   -6.0580   -0.0180 o         1 MOL     -0.762849
     14 O4         -4.0670   -4.0870    0.9030 o         1 MOL     -0.762849
     15 H4         -5.3920   -4.7990   -3.3550 hn        1 MOL      0.325934
     16 H5         -6.6930   -3.2840   -2.4220 h1        1 MOL      0.093626
     17 H6         -6.7790   -5.0840   -0.6730 hc        1 MOL      0.024938
     18 H7         -6.6420   -3.6040    0.2570 hc        1 MOL      0.024938
     19 N2         -4.8350   -1.2230   -2.4520 n         1 MOL     -0.467566
     20 C7         -4.6230    0.2650   -2.4150 c3        1 MOL      0.057527
     21 C8         -5.8360    1.1970   -2.0860 c         1 MOL      0.344371
     22 O5         -6.2130    2.1070   -2.8410 o         1 MOL     -0.524882
     23 C9         -3.3970    0.6230   -1.6680 c3        1 MOL      0.242974
     24 C10        -2.9520    2.1120   -1.7440 c3        1 MOL      0.164439
     25 C11        -2.2250   -0.3120   -2.1300 c3        1 MOL     -0.296223
     26 C12        -2.7170    2.6560   -3.1230 c3        1 MOL     -0.238622
     27 H8         -4.5870   -1.6210   -3.3490 hn        1 MOL      0.276511
     28 H9         -4.3530    0.4560   -3.4530 h1        1 MOL      0.008106
     29 H10        -3.5600    0.5220   -0.6010 hc        1 MOL     -0.142667
     30 H11        -1.9890    2.1720   -1.2470 hc        1 MOL     -0.021395
     31 H12        -3.6280    2.7590   -1.1790 hc        1 MOL     -0.021395
     32 H13        -2.4490   -1.2840   -1.6910 hc        1 MOL      0.079232
     33 H14        -2.0270   -0.4110   -3.1950 hc        1 MOL      0.079232
     34 H15        -1.2980   -0.0060   -1.6470 hc        1 MOL      0.079232
     35 H16        -3.7170    2.8000   -3.5490 hc        1 MOL      0.039201
     36 H17        -2.2490    3.6370   -3.1680 hc        1 MOL      0.039201
     37 H18        -2.0880    1.9810   -3.6940 hc        1 MOL      0.039201
     38 N3         -6.3040    0.9780   -0.8600 n         1 MOL     -0.198952
     39 C13        -7.3080    1.6980   -0.2050 c3        1 MOL      0.176757
     40 C14        -6.9470    3.1270    0.2270 c         1 MOL      0.513176
     41 O6         -7.7340    4.0030   -0.0880 o         1 MOL     -0.591784
     42 C15        -7.9460    0.9200    0.9460 c3        1 MOL     -0.301820
     43 C16        -8.6770   -0.4020    0.5430 c         1 MOL      0.749555
     44 O7         -9.1240   -0.5510   -0.6040 o         1 MOL     -0.741403
     45 O8         -8.9400   -1.2520    1.4430 o         1 MOL     -0.741403
     46 H19        -5.8960    0.1640   -0.4190 hn        1 MOL      0.285839
     47 H20        -8.1190    1.8540   -0.9090 h1        1 MOL      0.021332
     48 H21        -8.7090    1.4840    1.4870 hc        1 MOL      0.069933
     49 H22        -7.1440    0.7080    1.6540 hc        1 MOL      0.069933
     50 N4         -5.8120    3.4970    0.8440 n         1 MOL     -0.471831
     51 C17        -4.7800    2.7350    1.5840 c3        1 MOL     -0.042315
     52 C18        -4.9820    2.6510    3.0820 c         1 MOL      0.627739
     53 O9         -6.1080    2.7170    3.5120 o         1 MOL     -0.555233
     54 H23        -5.8230    4.4840    1.1050 hn        1 MOL      0.278281
     55 H24        -3.8330    3.2430    1.3890 h1        1 MOL      0.056584
     56 H25        -4.7160    1.7150    1.2030 h1        1 MOL      0.056584
     57 N5         -3.9150    2.5590    3.8940 n         1 MOL     -0.527454
     58 C19        -2.5080    2.6610    3.5740 c3        1 MOL      0.266128
     59 C20        -2.0200    1.5770    2.6020 c         1 MOL      0.435262
     60 O10        -2.5020    0.4440    2.6220 o         1 MOL     -0.383167
     61 C21        -1.7490    2.5860    4.8900 c3        1 MOL     -0.195697
     62 C22        -2.0640    1.3600    5.7170 c         1 MOL      0.591504
     63 O11        -3.1850    1.3000    6.3570 o         1 MOL     -0.642576
     64 O12        -1.2450    0.4290    5.7410 o         1 MOL     -0.642576
     65 H26        -4.0810    2.3050    4.8600 hn        1 MOL      0.228499
     66 H27        -2.3160    3.6600    3.1750 h1        1 MOL     -0.010041
     67 H28        -1.9300    3.4900    5.4660 hc        1 MOL      0.024645
     68 H29        -0.6910    2.5740    4.6360 hc        1 MOL      0.024645
     69 N6         -0.9640    1.7700    1.7810 n         1 MOL     -0.476516
     70 C23        -0.1130    2.9710    1.6990 c3        1 MOL     -0.044451
     71 C24        -0.6530    3.9710    0.6150 c         1 MOL      0.410777
     72 O13        -1.8300    4.3600    0.6170 o         1 MOL     -0.469249
     73 H30        -0.6870    1.0260    1.1420 hn        1 MOL      0.331415
     74 H31         0.8510    2.6000    1.3650 h1        1 MOL      0.073380
     75 H32        -0.0280    3.4860    2.6590 h1        1 MOL      0.073380
     76 N7          0.2230    4.2850   -0.3720 n         1 MOL     -0.322406
     77 C25        -0.1000    5.0570   -1.5920 c3        1 MOL     -0.019759
     78 C26         0.8210    4.6170   -2.7910 c         1 MOL      0.305583
     79 O14         0.5960    5.0930   -3.9010 o         1 MOL     -0.506321
     80 C27         0.3140    6.5360   -1.4600 c3        1 MOL      0.073731
     81 C28        -0.4090    7.1180   -0.1990 c3        1 MOL     -0.308178
     82 C29        -0.1580    8.6080   -0.0370 c         1 MOL      0.715951
     83 N8         -0.5560    9.2180    1.0810 n         1 MOL     -0.833601
     84 O15         0.4680    9.2720   -0.8380 o         1 MOL     -0.573178
     85 H33         1.2010    4.1250   -0.1790 hn        1 MOL      0.216268
     86 H34        -1.1740    4.9480   -1.7920 h1        1 MOL      0.150345
     87 H35         0.0900    7.1890   -2.3010 hc        1 MOL      0.031418
     88 H36         1.3940    6.6010   -1.3340 hc        1 MOL      0.031418
     89 H37        -0.0820    6.5830    0.6920 hc        1 MOL      0.093923
     90 H38        -1.4900    7.0020   -0.2510 hc        1 MOL      0.093923
     91 H39        -1.1370    8.6440    1.6770 hn        1 MOL      0.364726
     92 H40        -0.4820   10.2190    1.2000 hn        1 MOL      0.364726
     93 N9          1.7790    3.7270   -2.6650 n         1 MOL     -0.105464
     94 C30         2.5920    3.1300   -3.7650 c3        1 MOL     -0.146197
     95 C31         4.1010    2.8930   -3.4100 c         1 MOL      0.527106
     96 O16         4.7040    2.1570   -4.1090 o         1 MOL     -0.533845
     97 C32         1.9420    1.9220   -4.3720 c3        1 MOL      0.389353
     98 C33         0.6730    2.0620   -5.1240 c3        1 MOL     -0.391222
     99 C34         1.6270    0.8920   -3.3700 c3        1 MOL     -0.391222
    100 H41         1.6690    3.1250   -1.8570 hn        1 MOL      0.166063
    101 H42         2.6000    3.9150   -4.5220 h1        1 MOL      0.101849
    102 H43         2.6220    1.4960   -5.1090 hc        1 MOL     -0.016785
    103 H44        -0.0640    2.5040   -4.4420 hc        1 MOL      0.088446
    104 H45         0.8360    2.7210   -5.9790 hc        1 MOL      0.088446
    105 H46         0.3100    1.0800   -5.4260 hc        1 MOL      0.088446
    106 H47         2.5670    0.7180   -2.8510 hc        1 MOL      0.088446
    107 H48         0.8620    1.2820   -2.7000 hc        1 MOL      0.088446
    108 H49         1.1630    0.0290   -3.8410 hc        1 MOL      0.088446
    109 N10         4.7390    3.5060   -2.3500 n         1 MOL     -0.402560
    110 C35         6.1030    3.3250   -1.9210 c3        1 MOL      0.238396
    111 C36         6.5150    2.2310   -0.9010 c         1 MOL      0.466117
    112 O17         7.5460    2.3040   -0.2780 o         1 MOL     -0.510462
    113 C37         6.6960    4.6850   -1.5490 c3        1 MOL     -0.405673
    114 C38         6.1260    5.2050   -0.1670 c         1 MOL      0.790830
    115 N11         6.9970    5.9360    0.4640 n         1 MOL     -0.861990
    116 O18         5.0150    4.9550    0.2640 o         1 MOL     -0.557879
    117 H50         4.1890    4.1710   -1.8240 hn        1 MOL      0.159917
    118 H51         6.6620    2.9640   -2.7790 h1        1 MOL      0.052909
    119 H52         6.4130    5.3680   -2.3620 hc        1 MOL      0.101816
    120 H53         7.7810    4.6500   -1.4650 hc        1 MOL      0.101816
    121 H54         7.9620    5.9930    0.1440 hn        1 MOL      0.381546
    122 H55         6.7950    6.3960    1.3350 hn        1 MOL      0.381546
    123 N12         5.5920    1.2070   -0.7150 n         1 MOL     -0.398634
    124 C39         5.7400    0.3100    0.3620 c3        1 MOL     -0.022328
    125 C40         4.9920   -0.9910    0.2150 c         1 MOL      0.566274
    126 O19         3.8380   -1.0410   -0.1290 o         1 MOL     -0.478772
    127 C41         5.3720    1.0540    1.6370 c3        1 MOL     -0.435920
    128 C42         5.8890    0.2690    2.8500 ca        1 MOL      0.130485
    129 C43         4.9810   -0.3950    3.7890 ca        1 MOL     -0.161551
    130 C44         7.2720    0.1530    3.1360 ca        1 MOL     -0.161551
    131 C45         5.4920   -1.2820    4.8170 ca        1 MOL     -0.264343
    132 C46         7.7700   -0.7730    4.0750 ca        1 MOL     -0.264343
    133 C47         6.8860   -1.4930    4.9140 ca        1 MOL      0.441016
    134 O20         7.3680   -2.2110    5.9580 oh        1 MOL     -0.641005
    135 H56         4.7530    1.2000   -1.2830 hn        1 MOL      0.255420
    136 H57         6.7470   -0.1060    0.3190 h1        1 MOL      0.065143
    137 H58         4.2820    1.0070    1.6080 hc        1 MOL      0.192027
    138 H59         5.7570    2.0660    1.7220 hc        1 MOL      0.192027
    139 H60         3.9110   -0.2800    3.7100 ha        1 MOL      0.130393
    140 H61         7.9400    0.6190    2.4310 ha        1 MOL      0.130393
    141 H62         4.8730   -1.7150    5.5800 ha        1 MOL      0.125605
    142 H63         8.8340   -0.9840    4.0110 ha        1 MOL      0.125605
    143 H64         6.7360   -2.7680    6.4130 ho        1 MOL      0.458811
    144 N13         5.6100   -2.0820    0.6800 n         1 MOL     -0.535447
    145 C48         5.2290   -3.5310    0.7990 c3        1 MOL      0.007009
    146 C49         4.4420   -4.1130   -0.3730 c         1 MOL      0.728361
    147 O21         4.3320   -5.3210   -0.4780 o         1 MOL     -0.622210
    148 C50         4.6260   -3.7560    2.2340 c3        1 MOL      0.056134
    149 C51         3.2500   -3.1860    2.3670 c3        1 MOL     -0.036208
    150 C52         2.5540   -3.4060    3.7260 c         1 MOL      0.769467
    151 O22         2.6600   -4.4930    4.2860 o         1 MOL     -0.696478
    152 O23         1.7260   -2.5290    4.1040 o         1 MOL     -0.696478
    153 H65         6.5430   -1.8750    0.9850 hn        1 MOL      0.285451
    154 H66         6.2240   -3.9720    0.7600 h1        1 MOL      0.052649
    155 H67         5.2420   -3.2710    2.9890 hc        1 MOL     -0.041992
    156 H68         4.6460   -4.8220    2.4740 hc        1 MOL     -0.041992
    157 H69         2.5980   -3.5300    1.5690 hc        1 MOL     -0.018492
    158 H70         3.2710   -2.1030    2.2080 hc        1 MOL     -0.018492
    159 N14         4.0710   -3.3650   -1.4210 n         1 MOL     -0.425447
    160 C53         3.2970   -3.9780   -2.5550 c3        1 MOL     -0.076866
    161 C54         4.1650   -4.6580   -3.5870 c         1 MOL      0.390569
    162 O24         3.6840   -5.2130   -4.5390 o         1 MOL     -0.518328
    163 C55         2.3680   -2.9040   -3.2470 c3        1 MOL     -0.228168
    164 C56         0.8370   -3.1000   -3.0850 c3        1 MOL     -0.028971
    165 C57         0.5160   -3.4870   -1.6720 c         1 MOL      0.800771
    166 O25         0.4140   -4.6720   -1.3290 o         1 MOL     -0.796281
    167 O26         0.0610   -2.5610   -0.9390 o         1 MOL     -0.796281
    168 H71         4.2050   -2.3740   -1.3000 hn        1 MOL      0.219045
    169 H72         2.7000   -4.7680   -2.1070 h1        1 MOL      0.206247
    170 H73         2.5860   -2.8250   -4.3100 hc        1 MOL      0.088330
    171 H74         2.5890   -1.9340   -2.8070 hc        1 MOL      0.088330
    172 H75         0.4560   -3.8470   -3.7830 hc        1 MOL      0.032497
    173 H76         0.3200   -2.2320   -3.5150 hc        1 MOL      0.032497
    174 N15         5.4640   -4.7020   -3.3690 n         1 MOL     -0.095614
    175 C58         6.4130   -5.2460   -4.3970 c3        1 MOL     -0.221166
    176 H77         7.4390   -5.0650   -4.0750 h1        1 MOL      0.086033
    177 H78         6.2520   -6.3170   -4.5100 h1        1 MOL      0.086033
    178 H79         6.2390   -4.7490   -5.3520 h1        1 MOL      0.086033
    179 H80         5.8020   -4.3090   -2.5060 hn        1 MOL      0.128642
    180 Ca1        -1.4840   -3.9590    0.6060 Ca        1 MOL      1.732906
    181 O27        -2.7970   -1.7050    0.9460 oh        1 MOL     -0.805256
    182 H81        -3.6510   -1.7100    0.5080 ho        1 MOL      0.393299
    183 H82        -2.8780   -1.0310    1.6200 ho        1 MOL      0.393299
    184 O28        -2.5230   -4.3050    3.1410 oh        1 MOL     -0.805256
    185 H83        -3.3180   -4.3320    2.6120 ho        1 MOL      0.393299
    186 H84        -2.7980   -4.5570    4.0150 ho        1 MOL      0.393299
    187 O29        -2.0440   -6.3510   -0.3670 oh        1 MOL     -0.805256
    188 H85        -2.9970   -6.3910   -0.2710 ho        1 MOL      0.393299
    189 H86        -1.7780   -7.2540   -0.5290 ho        1 MOL      0.393299
    190 O30        -0.2090   -2.2370    2.1440 oh        1 MOL     -0.805256
    191 H87         0.4060   -2.3280    2.8760 ho        1 MOL      0.393299
    192 H88         0.1190   -1.4880    1.6440 ho        1 MOL      0.393299
    193 O31         0.1820   -6.2400    1.4250 oh        1 MOL     -0.805256
    194 H89         0.4390   -6.5970    0.5760 ho        1 MOL      0.393299
    195 H90         0.8830   -6.4890    2.0180 ho        1 MOL      0.393299
@<TRIPOS>BOND
     1    1    2 1   
     2    1    4 1   
     3    1    5 1   
     4    1    6 1   
     5    2    3 2   
     6    2    7 1   
     7    7    8 1   
     8    7   15 1   
     9    8    9 1   
    10    8   11 1   
    11    8   16 1   
    12    9   10 2   
    13    9   19 1   
    14   11   12 1   
    15   11   17 1   
    16   11   18 1   
    17   12   13 1   
    18   12   14 1   
    19   19   20 1   
    20   19   27 1   
    21   20   21 1   
    22   20   23 1   
    23   20   28 1   
    24   21   22 2   
    25   21   38 1   
    26   23   24 1   
    27   23   25 1   
    28   23   29 1   
    29   24   26 1   
    30   24   30 1   
    31   24   31 1   
    32   25   32 1   
    33   25   33 1   
    34   25   34 1   
    35   26   35 1   
    36   26   36 1   
    37   26   37 1   
    38   38   39 1   
    39   38   46 1   
    40   39   40 1   
    41   39   42 1   
    42   39   47 1   
    43   40   41 2   
    44   40   50 1   
    45   42   43 1   
    46   42   48 1   
    47   42   49 1   
    48   43   44 1   
    49   43   45 1   
    50   50   51 1   
    51   50   54 1   
    52   51   52 1   
    53   51   55 1   
    54   51   56 1   
    55   52   53 2   
    56   52   57 1   
    57   57   58 1   
    58   57   65 1   
    59   58   59 1   
    60   58   61 1   
    61   58   66 1   
    62   59   60 2   
    63   59   69 1   
    64   61   62 1   
    65   61   67 1   
    66   61   68 1   
    67   62   63 1   
    68   62   64 1   
    69   69   70 1   
    70   69   73 1   
    71   70   71 1   
    72   70   74 1   
    73   70   75 1   
    74   71   72 2   
    75   71   76 1   
    76   76   77 1   
    77   76   85 1   
    78   77   78 1   
    79   77   80 1   
    80   77   86 1   
    81   78   79 2   
    82   78   93 1   
    83   80   81 1   
    84   80   87 1   
    85   80   88 1   
    86   81   82 1   
    87   81   89 1   
    88   81   90 1   
    89   82   83 1   
    90   82   84 2   
    91   83   91 1   
    92   83   92 1   
    93   93   94 1   
    94   93  100 1   
    95   94   95 1   
    96   94   97 1   
    97   94  101 1   
    98   95   96 2   
    99   95  109 1   
   100   97   98 1   
   101   97   99 1   
   102   97  102 1   
   103   98  103 1   
   104   98  104 1   
   105   98  105 1   
   106   99  106 1   
   107   99  107 1   
   108   99  108 1   
   109  109  110 1   
   110  109  117 1   
   111  110  111 1   
   112  110  113 1   
   113  110  118 1   
   114  111  112 2   
   115  111  123 1   
   116  113  114 1   
   117  113  119 1   
   118  113  120 1   
   119  114  115 1   
   120  114  116 2   
   121  115  121 1   
   122  115  122 1   
   123  123  124 1   
   124  123  135 1   
   125  124  125 1   
   126  124  127 1   
   127  124  136 1   
   128  125  126 2   
   129  125  144 1   
   130  127  128 1   
   131  127  137 1   
   132  127  138 1   
   133  128  129 ar  
   134  128  130 ar  
   135  129  131 ar  
   136  129  139 1   
   137  130  132 ar  
   138  130  140 1   
   139  131  133 ar  
   140  131  141 1   
   141  132  133 ar  
   142  132  142 1   
   143  133  134 1   
   144  134  143 1   
   145  144  145 1   
   146  144  153 1   
   147  145  146 1   
   148  145  148 1   
   149  145  154 1   
   150  146  147 2   
   151  146  159 1   
   152  148  149 1   
   153  148  155 1   
   154  148  156 1   
   155  149  150 1   
   156  149  157 1   
   157  149  158 1   
   158  150  151 1   
   159  150  152 1   
   160  159  160 1   
   161  159  168 1   
   162  160  161 1   
   163  160  163 1   
   164  160  169 1   
   165  161  162 2   
   166  161  174 1   
   167  163  164 1   
   168  163  170 1   
   169  163  171 1   
   170  164  165 1   
   171  164  172 1   
   172  164  173 1   
   173  165  166 1   
   174  165  167 1   
   175  174  175 1   
   176  174  179 1   
   177  175  176 1   
   178  175  177 1   
   179  175  178 1   
   180  181  182 1   
   181  181  183 1   
   182  184  185 1   
   183  184  186 1   
   184  187  188 1   
   185  187  189 1   
   186  190  191 1   
   187  190  192 1   
   188  193  194 1   
   189  193  195 1   
@<TRIPOS>SUBSTRUCTURE
     1 MOL         1 TEMP              0 ****  ****    0 ROOT
