@<TRIPOS>MOLECULE
MOL
  189   185     1     0     0
SMALL
resp


@<TRIPOS>ATOM
      1 C1          3.8780    4.1070   -3.3060 c3        1 MOL     -0.403543
      2 C2          4.6750    3.0920   -2.3870 c         1 MOL      0.614975
      3 O1          4.1000    2.6200   -1.4150 o         1 MOL     -0.606268
      4 H1          4.5460    4.5090   -4.0670 hc        1 MOL      0.102157
      5 H2          3.0490    3.5880   -3.7880 hc        1 MOL      0.102157
      6 H3          3.4910    4.9230   -2.6960 hc        1 MOL      0.102157
      7 N1          5.8470    2.7520   -2.7670 n         1 MOL     -0.473639
      8 C3          6.7570    1.6380   -2.2250 c3        1 MOL      0.306085
      9 C4          5.8840    0.4270   -1.9130 c         1 MOL      0.306081
     10 O2          5.5460    0.1130   -0.7760 o         1 MOL     -0.580949
     11 C5          7.8150    1.9980   -1.2470 c3        1 MOL     -0.108658
     12 C6          7.4760    3.1850   -0.2690 c         1 MOL      0.646995
     13 O3          6.4230    3.1490    0.4010 o         1 MOL     -0.694712
     14 O4          8.1720    4.2220   -0.3770 o         1 MOL     -0.694712
     15 H4          6.0930    3.1170   -3.6660 hn        1 MOL      0.265787
     16 H5          7.2680    1.3850   -3.1560 h1        1 MOL     -0.008122
     17 H6          8.6770    2.3640   -1.8010 hc        1 MOL      0.008438
     18 H7          8.1410    1.0760   -0.7610 hc        1 MOL      0.008438
     19 N2          5.3610   -0.2510   -2.9330 n         1 MOL     -0.334972
     20 C7          4.8340   -1.6150   -2.9660 c3        1 MOL      0.196495
     21 C8          5.8060   -2.6790   -2.3530 c         1 MOL      0.279675
     22 O5          6.4380   -3.4240   -3.0540 o         1 MOL     -0.562435
     23 C9          3.3790   -1.7580   -2.2570 c3        1 MOL      0.128005
     24 C10         2.7880   -3.1810   -2.5190 c3        1 MOL      0.270751
     25 C11         2.2640   -0.7270   -2.6740 c3        1 MOL     -0.537717
     26 C12         2.8310   -3.5620   -4.0350 c3        1 MOL     -0.178586
     27 H8          5.5770    0.0970   -3.8600 hn        1 MOL      0.208510
     28 H9          4.7070   -1.9230   -3.9990 h1        1 MOL     -0.000930
     29 H10         3.5670   -1.5870   -1.2030 hc        1 MOL     -0.054089
     30 H11         1.8070   -3.1670   -2.0610 hc        1 MOL     -0.076877
     31 H12         3.3890   -3.9210   -2.0090 hc        1 MOL     -0.076877
     32 H13         2.6560    0.1990   -2.2420 hc        1 MOL      0.131453
     33 H14         2.1830   -0.6640   -3.7620 hc        1 MOL      0.131453
     34 H15         1.3160   -0.9200   -2.1730 hc        1 MOL      0.131453
     35 H16         3.7610   -4.0750   -4.2720 hc        1 MOL      0.017696
     36 H17         2.0450   -4.2840   -4.2090 hc        1 MOL      0.017696
     37 H18         2.7760   -2.6960   -4.6900 hc        1 MOL      0.017696
     38 N3          5.8950   -2.6550   -1.0520 n         1 MOL      0.035110
     39 C13         6.9070   -3.5030   -0.3120 c3        1 MOL     -0.009627
     40 C14         6.2680   -4.7690    0.3820 c         1 MOL      0.541946
     41 O6          6.8660   -5.8570    0.3180 o         1 MOL     -0.562324
     42 C15         7.8320   -2.8190    0.7720 c3        1 MOL     -0.178727
     43 C16         8.3820   -1.4880    0.5010 c         1 MOL      0.749700
     44 O7          9.0600   -1.2890   -0.5400 o         1 MOL     -0.714511
     45 O8          8.2250   -0.5750    1.3780 o         1 MOL     -0.714511
     46 H19         5.4350   -1.8530   -0.6600 hn        1 MOL      0.297761
     47 H20         7.5910   -3.9270   -1.0560 h1        1 MOL      0.073486
     48 H21         8.6610   -3.5010    0.9910 hc        1 MOL      0.046553
     49 H22         7.2680   -2.8500    1.7000 hc        1 MOL      0.046553
     50 N4          4.9970   -4.7460    0.9750 n         1 MOL     -0.635599
     51 C17         4.1540   -3.6040    1.3620 c3        1 MOL      0.151713
     52 C18         4.4060   -3.2640    2.8590 c         1 MOL      0.462686
     53 O9          5.3830   -3.6880    3.5130 o         1 MOL     -0.536286
     54 H23         4.7970   -5.6200    1.4500 hn        1 MOL      0.321388
     55 H24         3.1280   -3.9620    1.1990 h1        1 MOL      0.033697
     56 H25         4.2140   -2.7830    0.6510 h1        1 MOL      0.033697
     57 N5          3.6810   -2.3870    3.5680 n         1 MOL     -0.442383
     58 C19         2.4450   -1.7400    3.0960 c3        1 MOL      0.160297
     59 C20         2.5050   -1.0380    1.6860 c         1 MOL     -0.019313
     60 O10         3.5730   -0.6470    1.1890 o         1 MOL     -0.364175
     61 C21         1.9450   -0.7840    4.1260 c3        1 MOL     -0.367890
     62 C22         3.0230    0.3600    4.3630 c         1 MOL      0.782580
     63 O11         3.1090    1.2520    3.5360 o         1 MOL     -0.709398
     64 O12         3.8920    0.2350    5.3060 o         1 MOL     -0.709398
     65 H26         4.0140   -2.1430    4.4900 hn        1 MOL      0.316589
     66 H27         1.7900   -2.6010    2.9390 h1        1 MOL      0.037729
     67 H28         1.7550   -1.2090    5.1150 hc        1 MOL      0.086871
     68 H29         0.9770   -0.3630    3.8510 hc        1 MOL      0.086871
     69 N6          1.3700   -0.7990    1.0300 n         1 MOL      0.000374
     70 C23         0.0120   -1.2740    1.3700 c3        1 MOL     -0.064241
     71 C24        -0.4430   -2.5850    0.7190 c         1 MOL      0.642503
     72 O13         0.3840   -3.1900   -0.0190 o         1 MOL     -0.553368
     73 H30         1.4550   -0.1140    0.2870 hn        1 MOL      0.159692
     74 H31        -0.6470   -0.5350    0.9150 h1        1 MOL      0.051833
     75 H32        -0.1070   -1.4060    2.4410 h1        1 MOL      0.051833
     76 N7         -1.7020   -3.0310    0.8980 n         1 MOL     -0.499366
     77 C25        -2.2820   -4.2980    0.4040 c3        1 MOL      0.029920
     78 C26        -3.0580   -4.1510   -0.9530 c         1 MOL      0.386282
     79 O14        -3.6110   -5.1320   -1.4170 o         1 MOL     -0.518465
     80 C27        -3.1290   -4.9860    1.5050 c3        1 MOL     -0.106326
     81 C28        -4.3270   -4.3100    2.1320 c3        1 MOL     -0.290919
     82 C29        -5.4230   -3.9790    1.1300 c         1 MOL      0.424204
     83 N8         -6.1130   -4.9470    0.6480 n         1 MOL     -0.576835
     84 O15        -5.6560   -2.8180    0.8120 o         1 MOL     -0.487449
     85 H33        -2.3640   -2.4040    1.3270 hn        1 MOL      0.295173
     86 H34        -1.4770   -4.9990    0.1820 h1        1 MOL      0.125031
     87 H35        -2.4630   -5.1760    2.3490 hc        1 MOL      0.060921
     88 H36        -3.3710   -5.9880    1.1430 hc        1 MOL      0.060921
     89 H37        -3.9360   -3.3740    2.5330 hc        1 MOL      0.131729
     90 H38        -4.7540   -4.8950    2.9420 hc        1 MOL      0.131729
     91 H39        -5.8610   -5.9110    0.8560 hn        1 MOL      0.318657
     92 H40        -7.0450   -4.7850    0.2970 hn        1 MOL      0.318657
     93 N9         -3.2870   -2.9080   -1.4570 n         1 MOL     -0.034813
     94 C30        -3.7480   -2.6820   -2.8650 c3        1 MOL     -0.270646
     95 C31        -5.1070   -1.9980   -3.0410 c         1 MOL      0.443240
     96 O16        -5.5230   -1.7570   -4.1660 o         1 MOL     -0.544701
     97 C32        -2.6280   -1.8740   -3.6300 c3        1 MOL      0.185359
     98 C33        -1.2000   -2.4490   -3.5930 c3        1 MOL     -0.151521
     99 C34        -2.4330   -0.4860   -2.9530 c3        1 MOL     -0.151521
    100 H41        -3.0540   -2.0980   -0.8910 hn        1 MOL      0.150618
    101 H42        -3.9050   -3.6580   -3.3240 h1        1 MOL      0.154283
    102 H43        -2.9880   -1.6110   -4.6200 hc        1 MOL      0.002165
    103 H44        -1.2530   -3.4760   -3.9460 hc        1 MOL      0.029942
    104 H45        -0.4950   -1.8040   -4.1180 hc        1 MOL      0.029942
    105 H46        -0.8440   -2.5220   -2.5600 hc        1 MOL      0.029942
    106 H47        -1.8140   -0.6160   -2.0600 hc        1 MOL      0.029942
    107 H48        -1.9320    0.3180   -3.4970 hc        1 MOL      0.029942
    108 H49        -3.4200   -0.0630   -2.7350 hc        1 MOL      0.029942
    109 N10        -5.8240   -1.6820   -1.9980 n         1 MOL     -0.114906
    110 C35        -7.2270   -1.0660   -2.1530 c3        1 MOL     -0.203801
    111 C36        -7.2800    0.3640   -1.5060 c         1 MOL      0.660649
    112 O17        -8.1850    1.1090   -1.7430 o         1 MOL     -0.569694
    113 C37        -8.2780   -1.8890   -1.3950 c3        1 MOL      0.017163
    114 C38        -8.5240   -3.3180   -1.7600 c         1 MOL      0.593682
    115 N11        -8.7730   -3.5470   -3.0220 n         1 MOL     -0.746637
    116 O18        -8.5790   -4.1510   -0.8290 o         1 MOL     -0.580415
    117 H50        -5.4570   -1.9210   -1.0860 hn        1 MOL      0.183992
    118 H51        -7.6670   -1.0130   -3.1490 h1        1 MOL      0.101288
    119 H52        -9.2720   -1.4540   -1.4930 hc        1 MOL      0.015278
    120 H53        -8.1250   -1.7950   -0.3180 hc        1 MOL      0.015278
    121 H54        -8.7860   -2.7710   -3.6750 hn        1 MOL      0.367005
    122 H55        -9.0380   -4.4910   -3.2760 hn        1 MOL      0.367005
    123 N12        -6.2340    0.8100   -0.7880 n         1 MOL     -0.503947
    124 C39        -6.1940    2.1210   -0.2400 c3        1 MOL      0.220553
    125 C40        -4.8160    2.7640    0.0070 c         1 MOL      0.478690
    126 O19        -3.8070    2.0590    0.0960 o         1 MOL     -0.442272
    127 C41        -6.9670    1.9010    1.1210 c3        1 MOL     -0.278143
    128 C42        -6.5320    0.7720    2.0320 ca        1 MOL     -0.151493
    129 C43        -7.3930   -0.3560    2.1290 ca        1 MOL      0.161184
    130 C44        -5.3620    0.8980    2.7940 ca        1 MOL      0.161184
    131 C45        -7.0810   -1.4130    3.0390 ca        1 MOL     -0.550370
    132 C46        -5.0540   -0.1480    3.6500 ca        1 MOL     -0.550370
    133 C47        -5.8570   -1.3360    3.7640 ca        1 MOL      0.594386
    134 O20        -5.5960   -2.4310    4.4690 oh        1 MOL     -0.524523
    135 H56        -5.4840    0.1290   -0.7200 hn        1 MOL      0.240563
    136 H57        -6.7290    2.8490   -0.8380 h1        1 MOL      0.035446
    137 H58        -7.9980    1.7750    0.8020 hc        1 MOL      0.090519
    138 H59        -6.8900    2.8570    1.6370 hc        1 MOL      0.090519
    139 H60        -8.3880   -0.3770    1.7010 ha        1 MOL      0.063119
    140 H61        -4.7710    1.8000    2.7850 ha        1 MOL      0.063119
    141 H62        -7.7350   -2.2720    3.0640 ha        1 MOL      0.217661
    142 H63        -4.0970   -0.1040    4.1430 ha        1 MOL      0.217661
    143 H64        -6.3590   -3.0080    4.5100 ho        1 MOL      0.334106
    144 N13        -4.8930    4.0750    0.2440 n         1 MOL     -0.652231
    145 C48        -3.7630    4.9200    0.7070 c3        1 MOL      0.289506
    146 C49        -2.6220    5.2130   -0.2430 c         1 MOL      0.276909
    147 O21        -2.1310    6.3780   -0.2970 o         1 MOL     -0.521095
    148 C50        -3.3240    4.4400    2.1430 c3        1 MOL     -0.050054
    149 C51        -4.4760    4.7870    3.1190 c3        1 MOL     -0.153465
    150 C52        -4.1890    4.3880    4.5860 c         1 MOL      0.897702
    151 O22        -3.0000    4.2450    4.9400 o         1 MOL     -0.790740
    152 O23        -5.1570    4.2920    5.3550 o         1 MOL     -0.790740
    153 H65        -5.8200    4.4790    0.3030 hn        1 MOL      0.339351
    154 H66        -4.1520    5.9180    0.8750 h1        1 MOL      0.026243
    155 H67        -2.4400    5.0220    2.3770 hc        1 MOL      0.077239
    156 H68        -3.1540    3.3650    2.1330 hc        1 MOL      0.077239
    157 H69        -5.3670    4.3030    2.7240 hc        1 MOL     -0.028534
    158 H70        -4.5620    5.8690    3.1830 hc        1 MOL     -0.028534
    159 N14        -2.2270    4.2410   -1.0790 n         1 MOL     -0.264270
    160 C53        -1.0130    4.2240   -1.9900 c3        1 MOL     -0.050891
    161 C54        -1.2620    4.9920   -3.3150 c         1 MOL      0.389775
    162 O24        -0.3030    5.2150   -4.0990 o         1 MOL     -0.536098
    163 C55        -0.4990    2.7740   -2.1920 c3        1 MOL     -0.023115
    164 C56        -0.2480    1.9400   -0.8940 c3        1 MOL      0.285524
    165 C57         0.7630    2.4990    0.0930 c         1 MOL      0.512376
    166 O25         0.5000    3.5790    0.5770 o         1 MOL     -0.607888
    167 O26         1.8210    1.9120    0.3970 o         1 MOL     -0.607888
    168 H71        -2.7570    3.3920   -0.9840 hn        1 MOL      0.169230
    169 H72        -0.2190    4.7600   -1.4740 h1        1 MOL      0.163034
    170 H73         0.4230    2.9580   -2.7430 hc        1 MOL      0.022643
    171 H74        -1.1640    2.3150   -2.9150 hc        1 MOL      0.022643
    172 H75         0.0620    0.9840   -1.3170 hc        1 MOL     -0.103714
    173 H76        -1.2060    1.7870   -0.3950 hc        1 MOL     -0.103714
    174 N15        -2.5090    5.2970   -3.6080 n         1 MOL     -0.145792
    175 C58        -3.0190    6.0440   -4.7180 c3        1 MOL     -0.141148
    176 H77        -2.1890    6.4140   -5.3190 h1        1 MOL      0.065405
    177 H78        -3.6510    5.4000   -5.3300 h1        1 MOL      0.065405
    178 H79        -3.6060    6.8870   -4.3510 h1        1 MOL      0.065405
    179 H80        -3.2510    4.9250   -3.0240 hn        1 MOL      0.195531
    180 Ca1         4.2310    1.8550    1.1680 Ca        1 MOL      1.778313
    181 O27         5.0680    3.4530    3.2140 oh        1 MOL     -0.837408
    182 H81         5.8920    3.9290    3.3160 ho        1 MOL      0.393738
    183 H82         4.7250    3.3540    4.1050 ho        1 MOL      0.393738
    184 O28         6.1880    0.4910    2.3490 oh        1 MOL     -0.837408
    185 H83         6.9820    0.1420    1.9500 ho        1 MOL      0.393738
    186 H84         6.3440    0.4390    3.2930 ho        1 MOL      0.393738
    187 O29         2.9450    4.4490    1.0920 oh        1 MOL     -0.837408
    188 H85         2.8870    5.3860    1.2640 ho        1 MOL      0.393738
    189 H86         2.1140    4.2120    0.6940 ho        1 MOL      0.393738
@<TRIPOS>BOND
     1    1    2 1   
     2    1    4 1   
     3    1    5 1   
     4    1    6 1   
     5    2    3 2   
     6    2    7 1   
     7    7    8 1   
     8    7   15 1   
     9    8    9 1   
    10    8   11 1   
    11    8   16 1   
    12    9   10 2   
    13    9   19 1   
    14   11   12 1   
    15   11   17 1   
    16   11   18 1   
    17   12   13 1   
    18   12   14 1   
    19   19   20 1   
    20   19   27 1   
    21   20   21 1   
    22   20   23 1   
    23   20   28 1   
    24   21   22 2   
    25   21   38 1   
    26   23   24 1   
    27   23   25 1   
    28   23   29 1   
    29   24   26 1   
    30   24   30 1   
    31   24   31 1   
    32   25   32 1   
    33   25   33 1   
    34   25   34 1   
    35   26   35 1   
    36   26   36 1   
    37   26   37 1   
    38   38   39 1   
    39   38   46 1   
    40   39   40 1   
    41   39   42 1   
    42   39   47 1   
    43   40   41 2   
    44   40   50 1   
    45   42   43 1   
    46   42   48 1   
    47   42   49 1   
    48   43   44 1   
    49   43   45 1   
    50   50   51 1   
    51   50   54 1   
    52   51   52 1   
    53   51   55 1   
    54   51   56 1   
    55   52   53 2   
    56   52   57 1   
    57   57   58 1   
    58   57   65 1   
    59   58   59 1   
    60   58   61 1   
    61   58   66 1   
    62   59   60 2   
    63   59   69 1   
    64   61   62 1   
    65   61   67 1   
    66   61   68 1   
    67   62   63 1   
    68   62   64 1   
    69   69   70 1   
    70   69   73 1   
    71   70   71 1   
    72   70   74 1   
    73   70   75 1   
    74   71   72 2   
    75   71   76 1   
    76   76   77 1   
    77   76   85 1   
    78   77   78 1   
    79   77   80 1   
    80   77   86 1   
    81   78   79 2   
    82   78   93 1   
    83   80   81 1   
    84   80   87 1   
    85   80   88 1   
    86   81   82 1   
    87   81   89 1   
    88   81   90 1   
    89   82   83 1   
    90   82   84 2   
    91   83   91 1   
    92   83   92 1   
    93   93   94 1   
    94   93  100 1   
    95   94   95 1   
    96   94   97 1   
    97   94  101 1   
    98   95   96 2   
    99   95  109 1   
   100   97   98 1   
   101   97   99 1   
   102   97  102 1   
   103   98  103 1   
   104   98  104 1   
   105   98  105 1   
   106   99  106 1   
   107   99  107 1   
   108   99  108 1   
   109  109  110 1   
   110  109  117 1   
   111  110  111 1   
   112  110  113 1   
   113  110  118 1   
   114  111  112 2   
   115  111  123 1   
   116  113  114 1   
   117  113  119 1   
   118  113  120 1   
   119  114  115 1   
   120  114  116 2   
   121  115  121 1   
   122  115  122 1   
   123  123  124 1   
   124  123  135 1   
   125  124  125 1   
   126  124  127 1   
   127  124  136 1   
   128  125  126 2   
   129  125  144 1   
   130  127  128 1   
   131  127  137 1   
   132  127  138 1   
   133  128  129 ar  
   134  128  130 ar  
   135  129  131 ar  
   136  129  139 1   
   137  130  132 ar  
   138  130  140 1   
   139  131  133 ar  
   140  131  141 1   
   141  132  133 ar  
   142  132  142 1   
   143  133  134 1   
   144  134  143 1   
   145  144  145 1   
   146  144  153 1   
   147  145  146 1   
   148  145  148 1   
   149  145  154 1   
   150  146  147 2   
   151  146  159 1   
   152  148  149 1   
   153  148  155 1   
   154  148  156 1   
   155  149  150 1   
   156  149  157 1   
   157  149  158 1   
   158  150  151 1   
   159  150  152 1   
   160  159  160 1   
   161  159  168 1   
   162  160  161 1   
   163  160  163 1   
   164  160  169 1   
   165  161  162 2   
   166  161  174 1   
   167  163  164 1   
   168  163  170 1   
   169  163  171 1   
   170  164  165 1   
   171  164  172 1   
   172  164  173 1   
   173  165  166 1   
   174  165  167 1   
   175  174  175 1   
   176  174  179 1   
   177  175  176 1   
   178  175  177 1   
   179  175  178 1   
   180  181  182 1   
   181  181  183 1   
   182  184  185 1   
   183  184  186 1   
   184  187  188 1   
   185  187  189 1   
@<TRIPOS>SUBSTRUCTURE
     1 MOL         1 TEMP              0 ****  ****    0 ROOT
