@<TRIPOS>MOLECULE
MOL
  195   189     1     0     0
SMALL
resp


@<TRIPOS>ATOM
      1 C1          5.5360   -3.8450   -4.9750 c3        1 MOL     -0.333883
      2 C2          5.0670   -2.9170   -3.8360 c         1 MOL      0.820589
      3 O1          5.0010   -3.3860   -2.7000 o         1 MOL     -0.619937
      4 H1          4.6980   -4.0560   -5.6390 hc        1 MOL      0.079451
      5 H2          6.3310   -3.3570   -5.5380 hc        1 MOL      0.079451
      6 H3          5.9090   -4.7790   -4.5530 hc        1 MOL      0.079451
      7 N1          4.7080   -1.6750   -4.1240 n         1 MOL     -0.745141
      8 C3          4.4360   -0.7320   -3.1250 c3        1 MOL      0.755222
      9 C4          3.1820   -0.9220   -2.2590 c         1 MOL     -0.007582
     10 O2          2.8070   -0.0660   -1.5050 o         1 MOL     -0.201819
     11 C5          4.6630    0.6300   -3.7390 c3        1 MOL     -0.176952
     12 C6          6.0350    0.9130   -4.4110 c         1 MOL      0.670543
     13 O3          6.7640    1.8040   -3.8790 o         1 MOL     -0.674884
     14 O4          6.3930    0.2980   -5.4360 o         1 MOL     -0.674884
     15 H4          4.8320   -1.3100   -5.0570 hn        1 MOL      0.281335
     16 H5          5.2550   -0.7530   -2.4040 h1        1 MOL     -0.079498
     17 H6          4.4440    1.4210   -3.0270 hc        1 MOL     -0.029358
     18 H7          3.8170    0.7160   -4.4200 hc        1 MOL     -0.029358
     19 N2          2.3760   -1.9790   -2.5040 n         1 MOL     -0.348238
     20 C7          0.9060   -1.9700   -2.1530 c3        1 MOL      0.297225
     21 C8          0.5610   -2.9990   -1.1380 c         1 MOL      0.545941
     22 O5          1.2030   -4.0080   -1.1780 o         1 MOL     -0.528819
     23 C9          0.1590   -2.2120   -3.4920 c3        1 MOL     -0.530226
     24 C10         0.2070   -1.0040   -4.4970 c3        1 MOL      0.285466
     25 C11        -0.4820   -1.3300   -5.8320 c3        1 MOL     -0.392734
     26 C12        -1.9680   -1.2850   -5.7320 c3        1 MOL      0.219471
     27 N3         -2.5570   -1.9030   -6.8490 n4        1 MOL     -0.338647
     28 H8          2.7770   -2.8220   -2.8750 hn        1 MOL      0.247049
     29 H9          0.5870   -1.0310   -1.7000 h1        1 MOL      0.035541
     30 H10        -0.8800   -2.4810   -3.2630 hc        1 MOL      0.140199
     31 H11         0.6750   -3.0100   -4.0310 hc        1 MOL      0.140199
     32 H12         1.2220   -0.6900   -4.7430 hc        1 MOL     -0.015751
     33 H13        -0.3020   -0.2260   -3.9330 hc        1 MOL     -0.015751
     34 H14        -0.1220   -2.3310   -6.0880 hc        1 MOL      0.106992
     35 H15        -0.1040   -0.5910   -6.5300 hc        1 MOL      0.106992
     36 H16        -2.3870   -0.2850   -5.6760 hx        1 MOL      0.064782
     37 H17        -2.1980   -1.7830   -4.7890 hx        1 MOL      0.064782
     38 H18        -3.5480   -2.1050   -6.7350 hn        1 MOL      0.314486
     39 H19        -2.6220   -1.2790   -7.6350 hn        1 MOL      0.314486
     40 H20        -2.0600   -2.7060   -7.2100 hn        1 MOL      0.314486
     41 N4         -0.2850   -2.8060   -0.1430 n         1 MOL     -0.481059
     42 C13        -1.1680   -1.6490    0.2300 c3        1 MOL      0.025584
     43 C14        -1.7670   -0.7450   -0.9090 c         1 MOL      0.095495
     44 O6         -1.2040    0.3070   -1.2330 o         1 MOL     -0.183447
     45 C15        -0.4360   -0.7840    1.2930 c3        1 MOL     -0.435381
     46 C16         0.2360   -1.5500    2.4870 c         1 MOL      0.832338
     47 O7         -0.4470   -2.3470    3.2300 o         1 MOL     -0.769124
     48 O8          1.4730   -1.5490    2.5810 o         1 MOL     -0.769124
     49 H21        -0.3900   -3.5750    0.5010 hn        1 MOL      0.261853
     50 H22        -1.9870   -2.0250    0.8490 h1        1 MOL      0.084565
     51 H23        -1.1060   -0.0500    1.7250 hc        1 MOL      0.191552
     52 H24         0.3580   -0.2870    0.7430 hc        1 MOL      0.191552
     53 N5         -2.7510   -1.2220   -1.6200 n         1 MOL     -0.083081
     54 C17        -3.6560   -2.3150   -1.3420 c3        1 MOL     -0.095179
     55 C18        -4.5580   -2.6910   -2.5010 c         1 MOL      0.428828
     56 O9         -4.2730   -2.3090   -3.6300 o         1 MOL     -0.580280
     57 H25        -3.0900   -0.6280   -2.3730 hn        1 MOL      0.212337
     58 H26        -4.3550   -2.0120   -0.5550 h1        1 MOL      0.112370
     59 H27        -3.0920   -3.1910   -1.0190 h1        1 MOL      0.112370
     60 N6         -5.6170   -3.5320   -2.2670 n         1 MOL     -0.251007
     61 C19        -6.1800   -3.8780   -0.9440 c3        1 MOL     -0.386772
     62 C20        -7.1000   -2.7420   -0.2680 c         1 MOL      0.567365
     63 O10        -7.2870   -2.7690    0.9680 o         1 MOL     -0.517566
     64 C21        -6.9230   -5.1870   -0.9840 c3        1 MOL     -0.000132
     65 C22        -8.0690   -5.4370   -1.9740 c         1 MOL      0.703467
     66 O11        -8.9720   -4.6000   -1.9830 o         1 MOL     -0.709490
     67 O12        -8.0540   -6.4970   -2.5990 o         1 MOL     -0.709490
     68 H28        -6.1330   -3.9040   -3.0520 hn        1 MOL      0.271289
     69 H29        -5.3510   -4.0540   -0.2560 h1        1 MOL      0.151260
     70 H30        -7.2670   -5.6010   -0.0370 hc        1 MOL      0.023628
     71 H31        -6.1740   -5.9510   -1.1580 hc        1 MOL      0.023628
     72 N7         -7.5960   -1.8710   -1.0970 n         1 MOL     -0.340029
     73 C23        -8.6280   -0.9400   -0.6950 c3        1 MOL     -0.204814
     74 C24        -8.1490    0.4030   -0.1350 c         1 MOL      0.525273
     75 O13        -8.8530    1.4140   -0.2250 o         1 MOL     -0.548367
     76 H32        -7.4330   -2.0690   -2.0760 hn        1 MOL      0.304017
     77 H33        -9.1750   -1.2880    0.1790 h1        1 MOL      0.151156
     78 H34        -9.3240   -0.7310   -1.5070 h1        1 MOL      0.151156
     79 N8         -6.9840    0.2960    0.5090 n         1 MOL     -0.303534
     80 C25        -6.4000    1.4120    1.2990 c3        1 MOL      0.243382
     81 C26        -5.5830    2.3980    0.4680 c         1 MOL      0.389453
     82 O14        -5.1090    2.0700   -0.6190 o         1 MOL     -0.500080
     83 C27        -5.4880    0.9180    2.4860 c3        1 MOL      0.091808
     84 C28        -4.4010   -0.0490    1.9750 c3        1 MOL      0.096677
     85 O15        -6.2720    0.1700    3.4270 oh        1 MOL     -0.573248
     86 H35        -6.5250   -0.5900    0.6150 hn        1 MOL      0.138099
     87 H36        -7.2680    1.9580    1.6640 h1        1 MOL      0.038975
     88 H37        -5.0410    1.7750    2.9780 h1        1 MOL      0.011417
     89 H38        -5.6610   -0.0350    4.1390 ho        1 MOL      0.390017
     90 H39        -3.7190   -0.2960    2.7860 hc        1 MOL     -0.009688
     91 H40        -4.8090   -0.9720    1.5610 hc        1 MOL     -0.009688
     92 H41        -3.8840    0.4280    1.1500 hc        1 MOL     -0.009688
     93 N9         -5.3780    3.6210    0.9560 n         1 MOL     -0.440080
     94 C29        -4.5940    4.7420    0.3620 c3        1 MOL     -0.004319
     95 C30        -3.1310    4.7140    0.7510 c         1 MOL      0.515635
     96 O16        -2.2380    5.3690    0.2620 o         1 MOL     -0.487014
     97 C31        -5.2440    6.0690    0.7430 c3        1 MOL      0.035443
     98 C32        -6.6920    6.0720    0.3210 c3        1 MOL      0.172858
     99 C33        -4.6040    7.3480    0.0700 c3        1 MOL     -0.127443
    100 C34        -7.4540    7.3330    0.1650 c3        1 MOL     -0.270360
    101 H42        -5.6100    3.7970    1.9290 hn        1 MOL      0.244221
    102 H43        -4.6210    4.5330   -0.7150 h1        1 MOL      0.126510
    103 H44        -5.2700    6.2150    1.8200 hc        1 MOL      0.018707
    104 H45        -7.2980    5.4340    0.9710 hc        1 MOL     -0.014248
    105 H46        -6.8190    5.5090   -0.6080 hc        1 MOL     -0.014248
    106 H47        -3.5490    7.3680    0.3380 hc        1 MOL      0.036059
    107 H48        -4.5640    7.0970   -0.9900 hc        1 MOL      0.036059
    108 H49        -5.0260    8.3280    0.3000 hc        1 MOL      0.036059
    109 H50        -7.0940    7.9600    0.9770 hc        1 MOL      0.061550
    110 H51        -7.3220    7.7190   -0.8370 hc        1 MOL      0.061550
    111 H52        -8.5180    7.2090    0.3840 hc        1 MOL      0.061550
    112 N10        -2.8360    3.7340    1.6930 n         1 MOL     -0.346157
    113 C35        -1.5120    3.7030    2.3930 c3        1 MOL      0.066708
    114 C36        -0.3720    2.8540    1.7600 c         1 MOL      0.444547
    115 O17         0.3020    1.9910    2.3480 o         1 MOL     -0.481255
    116 C37        -1.6160    3.6070    3.9260 c3        1 MOL      0.164352
    117 C38        -2.1270    2.2430    4.3990 c3        1 MOL     -0.339405
    118 O18        -2.5360    4.6190    4.3630 oh        1 MOL     -0.622800
    119 H53        -3.5560    3.0840    1.9960 hn        1 MOL      0.199588
    120 H54        -1.0760    4.6990    2.2510 h1        1 MOL      0.115625
    121 H55        -0.6710    3.9380    4.3650 h1        1 MOL      0.076408
    122 H56        -2.6820    4.4320    5.2930 ho        1 MOL      0.395130
    123 H57        -1.3710    1.5040    4.1240 hc        1 MOL      0.086279
    124 H58        -2.3620    2.1180    5.4560 hc        1 MOL      0.086279
    125 H59        -3.0650    1.8970    3.9760 hc        1 MOL      0.086279
    126 N11        -0.1720    3.1830    0.5020 n         1 MOL     -0.515252
    127 C39         0.9070    2.6460   -0.4440 c3        1 MOL     -0.010350
    128 C40         2.2700    3.1400    0.0340 c         1 MOL      0.574042
    129 O19         2.4090    4.1570    0.6740 o         1 MOL     -0.567112
    130 C41         0.6290    2.9210   -1.9050 c3        1 MOL      0.463900
    131 C42         0.8270    4.3830   -2.2760 c3        1 MOL     -0.346206
    132 O20        -0.7080    2.6330   -2.2330 oh        1 MOL     -0.593070
    133 H60        -0.8340    3.8720    0.1610 hn        1 MOL      0.308087
    134 H61         0.8650    1.5640   -0.3660 h1        1 MOL     -0.045911
    135 H62         1.2320    2.2580   -2.5250 h1        1 MOL     -0.028484
    136 H63        -0.9350    1.7750   -1.8730 ho        1 MOL      0.243068
    137 H64         0.4340    4.9520   -1.4350 hc        1 MOL      0.082936
    138 H65         1.9090    4.4500   -2.3010 hc        1 MOL      0.082936
    139 H66         0.3480    4.6570   -3.2200 hc        1 MOL      0.082936
    140 N12         3.3530    2.4300   -0.2040 n         1 MOL     -0.136829
    141 C43         4.7090    2.6130    0.3740 c3        1 MOL     -0.156562
    142 C44         5.4030    1.3410    0.8900 c         1 MOL      0.655240
    143 O21         6.3500    1.4850    1.6480 o         1 MOL     -0.610761
    144 C45         5.5200    3.2950   -0.7340 c3        1 MOL      0.340667
    145 C46         6.5770    4.3000   -0.0960 c3        1 MOL     -0.137734
    146 C47         7.1680    5.1800   -1.1760 c3        1 MOL      0.027255
    147 C48         8.4180    5.7870   -0.6540 c3        1 MOL      0.239756
    148 N13         8.9380    6.8580   -1.5470 n4        1 MOL     -0.501971
    149 H67         3.2210    1.6260   -0.7990 hn        1 MOL     -0.039293
    150 H68         4.6690    3.2740    1.2340 h1        1 MOL      0.085520
    151 H69         4.8190    3.8800   -1.3370 hc        1 MOL     -0.062293
    152 H70         6.0110    2.5960   -1.4120 hc        1 MOL     -0.062293
    153 H71         7.3950    3.7240    0.3200 hc        1 MOL      0.023295
    154 H72         6.0570    4.9900    0.5810 hc        1 MOL      0.023295
    155 H73         6.4260    5.9360   -1.4200 hc        1 MOL      0.003915
    156 H74         7.4450    4.5800   -2.0390 hc        1 MOL      0.003915
    157 H75         9.1730    5.0240   -0.5380 hx        1 MOL      0.042619
    158 H76         8.3260    6.1680    0.3570 hx        1 MOL      0.042619
    159 H77         8.4090    7.7130   -1.4330 hn        1 MOL      0.344381
    160 H78         9.9070    7.1330   -1.4550 hn        1 MOL      0.344381
    161 H79         8.8510    6.4980   -2.4870 hn        1 MOL      0.344381
    162 N14         4.9660    0.0970    0.5540 n         1 MOL     -0.343666
    163 C49         5.4820   -1.0900    1.2560 c3        1 MOL     -0.126065
    164 C50         6.9980   -1.3180    0.8930 c         1 MOL      0.483204
    165 O22         7.4870   -1.2680   -0.2340 o         1 MOL     -0.498591
    166 C51         4.6160   -2.2880    0.9210 c3        1 MOL      0.213429
    167 C52         4.8860   -3.6170    1.6970 c3        1 MOL     -0.317350
    168 C53         5.0210   -3.3720    3.2470 c         1 MOL      0.551441
    169 O23         6.2570   -3.2620    3.6880 o         1 MOL     -0.642109
    170 O24         4.0620   -3.6390    4.0530 o         1 MOL     -0.642109
    171 H80         4.1070    0.0160    0.0360 hn        1 MOL      0.172997
    172 H81         5.4570   -0.7950    2.3080 h1        1 MOL      0.109721
    173 H82         4.8380   -2.4340   -0.1310 hc        1 MOL      0.014690
    174 H83         3.5400   -2.1050    1.0330 hc        1 MOL      0.014690
    175 H84         5.7380   -4.1920    1.3350 hc        1 MOL      0.083078
    176 H85         4.0770   -4.3280    1.5750 hc        1 MOL      0.083078
    177 N15         7.7470   -1.7670    1.9030 n         1 MOL     -0.369289
    178 C54         9.2280   -2.1270    1.8080 c3        1 MOL      0.073161
    179 H86         9.7010   -1.9740    2.7780 h1        1 MOL      0.025808
    180 H87         9.3310   -3.1710    1.5150 h1        1 MOL      0.025808
    181 H88         9.7110   -1.4900    1.0650 h1        1 MOL      0.025808
    182 H89         7.2800   -2.0430    2.7530 hn        1 MOL      0.296798
    183 Ca1         1.6100   -3.5660    4.3140 Ca        1 MOL      1.727652
    184 O25         2.3580   -1.4760    5.9130 oh        1 MOL     -0.858732
    185 H90         1.7090   -1.0030    6.4320 ho        1 MOL      0.422042
    186 H91         3.1830   -1.3350    6.3740 ho        1 MOL      0.422042
    187 O26         3.3960   -6.0970    4.7210 oh        1 MOL     -0.858732
    188 O27         2.1240   -4.7070    6.6720 oh        1 MOL     -0.858732
    189 H92         3.8960   -6.9100    4.8530 ho        1 MOL      0.422042
    190 H93         2.2740   -5.6510    6.6150 ho        1 MOL      0.422042
    191 H94         4.0620   -5.4200    4.6510 ho        1 MOL      0.422042
    192 H95         1.6020   -4.5950    7.4590 ho        1 MOL      0.422042
    193 O28        -0.3240   -2.5630    6.0960 oh        1 MOL     -0.858732
    194 H96        -0.1950   -1.6400    6.2910 ho        1 MOL      0.422042
    195 H97        -0.9920   -2.8440    6.7220 ho        1 MOL      0.422042
@<TRIPOS>BOND
     1    1    2 1   
     2    1    4 1   
     3    1    5 1   
     4    1    6 1   
     5    2    3 2   
     6    2    7 1   
     7    7    8 1   
     8    7   15 1   
     9    8    9 1   
    10    8   11 1   
    11    8   16 1   
    12    9   10 2   
    13    9   19 1   
    14   11   12 1   
    15   11   17 1   
    16   11   18 1   
    17   12   13 1   
    18   12   14 1   
    19   19   20 1   
    20   19   28 1   
    21   20   21 1   
    22   20   23 1   
    23   20   29 1   
    24   21   22 2   
    25   21   41 1   
    26   23   24 1   
    27   23   30 1   
    28   23   31 1   
    29   24   25 1   
    30   24   32 1   
    31   24   33 1   
    32   25   26 1   
    33   25   34 1   
    34   25   35 1   
    35   26   27 1   
    36   26   36 1   
    37   26   37 1   
    38   27   38 1   
    39   27   39 1   
    40   27   40 1   
    41   41   42 1   
    42   41   49 1   
    43   42   43 1   
    44   42   45 1   
    45   42   50 1   
    46   43   44 2   
    47   43   53 1   
    48   45   46 1   
    49   45   51 1   
    50   45   52 1   
    51   46   47 1   
    52   46   48 1   
    53   53   54 1   
    54   53   57 1   
    55   54   55 1   
    56   54   58 1   
    57   54   59 1   
    58   55   56 2   
    59   55   60 1   
    60   60   61 1   
    61   60   68 1   
    62   61   62 1   
    63   61   64 1   
    64   61   69 1   
    65   62   63 2   
    66   62   72 1   
    67   64   65 1   
    68   64   70 1   
    69   64   71 1   
    70   65   66 1   
    71   65   67 1   
    72   72   73 1   
    73   72   76 1   
    74   73   74 1   
    75   73   77 1   
    76   73   78 1   
    77   74   75 2   
    78   74   79 1   
    79   79   80 1   
    80   79   86 1   
    81   80   81 1   
    82   80   83 1   
    83   80   87 1   
    84   81   82 2   
    85   81   93 1   
    86   83   84 1   
    87   83   85 1   
    88   83   88 1   
    89   84   90 1   
    90   84   91 1   
    91   84   92 1   
    92   85   89 1   
    93   93   94 1   
    94   93  101 1   
    95   94   95 1   
    96   94   97 1   
    97   94  102 1   
    98   95   96 2   
    99   95  112 1   
   100   97   98 1   
   101   97   99 1   
   102   97  103 1   
   103   98  100 1   
   104   98  104 1   
   105   98  105 1   
   106   99  106 1   
   107   99  107 1   
   108   99  108 1   
   109  100  109 1   
   110  100  110 1   
   111  100  111 1   
   112  112  113 1   
   113  112  119 1   
   114  113  114 1   
   115  113  116 1   
   116  113  120 1   
   117  114  115 2   
   118  114  126 1   
   119  116  117 1   
   120  116  118 1   
   121  116  121 1   
   122  117  123 1   
   123  117  124 1   
   124  117  125 1   
   125  118  122 1   
   126  126  127 1   
   127  126  133 1   
   128  127  128 1   
   129  127  130 1   
   130  127  134 1   
   131  128  129 2   
   132  128  140 1   
   133  130  131 1   
   134  130  132 1   
   135  130  135 1   
   136  131  137 1   
   137  131  138 1   
   138  131  139 1   
   139  132  136 1   
   140  140  141 1   
   141  140  149 1   
   142  141  142 1   
   143  141  144 1   
   144  141  150 1   
   145  142  143 2   
   146  142  162 1   
   147  144  145 1   
   148  144  151 1   
   149  144  152 1   
   150  145  146 1   
   151  145  153 1   
   152  145  154 1   
   153  146  147 1   
   154  146  155 1   
   155  146  156 1   
   156  147  148 1   
   157  147  157 1   
   158  147  158 1   
   159  148  159 1   
   160  148  160 1   
   161  148  161 1   
   162  162  163 1   
   163  162  171 1   
   164  163  164 1   
   165  163  166 1   
   166  163  172 1   
   167  164  165 2   
   168  164  177 1   
   169  166  167 1   
   170  166  173 1   
   171  166  174 1   
   172  167  168 1   
   173  167  175 1   
   174  167  176 1   
   175  168  169 1   
   176  168  170 1   
   177  177  178 1   
   178  177  182 1   
   179  178  179 1   
   180  178  180 1   
   181  178  181 1   
   182  184  185 1   
   183  184  186 1   
   184  187  189 1   
   185  187  191 1   
   186  188  190 1   
   187  188  192 1   
   188  193  194 1   
   189  193  195 1   
@<TRIPOS>SUBSTRUCTURE
     1 MOL         1 TEMP              0 ****  ****    0 ROOT
