@<TRIPOS>MOLECULE
MOL
  185   180     1     0     0
SMALL
resp


@<TRIPOS>ATOM
      1 C1         -2.5060   -3.8880    4.7080 c3        1 MOL     -0.384577
      2 C2         -1.7800   -3.5400    3.4190 c         1 MOL      0.750807
      3 O1         -2.4590   -3.4080    2.3940 o         1 MOL     -0.598139
      4 H1         -2.0350   -4.7580    5.1670 hc        1 MOL      0.113605
      5 H2         -2.4550   -3.0430    5.3940 hc        1 MOL      0.113605
      6 H3         -3.5490   -4.1160    4.4880 hc        1 MOL      0.113605
      7 N1         -0.4110   -3.3580    3.4200 n         1 MOL     -0.762762
      8 C3          0.3870   -3.1640    2.1560 c3        1 MOL      0.364806
      9 C4          0.9570   -4.4980    1.7860 c         1 MOL      0.354459
     10 O2          1.2300   -5.4090    2.5670 o         1 MOL     -0.507791
     11 C5          1.3820   -2.0190    2.3350 c3        1 MOL     -0.095814
     12 C6          1.8600   -1.3220    1.0130 c         1 MOL      0.486766
     13 O3          2.7320   -0.4680    1.0300 o         1 MOL     -0.688992
     14 O4          1.2960   -1.6090   -0.0710 o         1 MOL     -0.688992
     15 H4          0.0460   -3.3670    4.3270 hn        1 MOL      0.344730
     16 H5         -0.2590   -2.9040    1.3110 h1        1 MOL     -0.020625
     17 H6          2.2280   -2.4210    2.9010 hc        1 MOL      0.064982
     18 H7          0.9640   -1.2290    2.9450 hc        1 MOL      0.064982
     19 N2          1.3890   -4.6630    0.4880 n         1 MOL     -0.092361
     20 C7          2.0540   -5.8270   -0.1180 c3        1 MOL     -0.105587
     21 C8          3.5340   -5.6060   -0.4840 c         1 MOL      0.480590
     22 O5          4.3550   -6.4710   -0.3280 o         1 MOL     -0.530665
     23 C9          1.3130   -6.3150   -1.3410 c3        1 MOL      0.082036
     24 C10        -0.2140   -6.6020   -1.1620 c3        1 MOL      0.095940
     25 C11        -0.8490   -7.1710   -2.4490 c3        1 MOL     -0.139394
     26 C12        -0.7490   -6.1250   -3.5440 c3        1 MOL     -0.007941
     27 N3         -1.6630   -4.9300   -3.5660 n4        1 MOL     -0.393725
     28 H8          1.1790   -3.8550   -0.0820 hn        1 MOL      0.135671
     29 H9          2.0230   -6.5990    0.6450 h1        1 MOL      0.104709
     30 H10         1.8210   -7.1980   -1.7290 hc        1 MOL     -0.005173
     31 H11         1.4520   -5.5900   -2.1440 hc        1 MOL     -0.005173
     32 H12        -0.6790   -5.6680   -0.8610 hc        1 MOL     -0.017728
     33 H13        -0.3530   -7.2770   -0.3150 hc        1 MOL     -0.017728
     34 H14        -1.8970   -7.4620   -2.3260 hc        1 MOL      0.091140
     35 H15        -0.2690   -8.0580   -2.6790 hc        1 MOL      0.091140
     36 H16        -1.0320   -6.7340   -4.4080 hx        1 MOL      0.083849
     37 H17         0.3120   -5.9150   -3.6560 hx        1 MOL      0.083849
     38 H18        -1.7150   -4.5390   -2.6330 hn        1 MOL      0.311131
     39 H19        -1.4520   -4.1880   -4.2140 hn        1 MOL      0.311131
     40 H20        -2.6180   -5.1600   -3.8080 hn        1 MOL      0.311131
     41 N4          3.8650   -4.4240   -0.9420 n         1 MOL     -0.331920
     42 C13         5.3000   -4.1490   -1.2060 c3        1 MOL      0.043512
     43 C14         5.9180   -3.4690    0.0130 c         1 MOL      0.364729
     44 O6          7.1110   -3.2610   -0.0160 o         1 MOL     -0.520335
     45 C15         5.3680   -3.2670   -2.4630 c3        1 MOL     -0.268501
     46 C16         4.3930   -2.1360   -2.5180 c         1 MOL      0.737268
     47 O7          4.2200   -1.4510   -1.4900 o         1 MOL     -0.723617
     48 O8          4.0900   -1.6480   -3.5760 o         1 MOL     -0.723617
     49 H21         3.2650   -3.6160   -1.0450 hn        1 MOL      0.162368
     50 H22         5.8180   -5.0890   -1.3730 h1        1 MOL      0.127213
     51 H23         5.1640   -3.9630   -3.2750 hc        1 MOL      0.092386
     52 H24         6.4130   -2.9720   -2.5650 hc        1 MOL      0.092386
     53 N5          5.1280   -3.0130    0.9630 n         1 MOL     -0.056685
     54 C17         5.4870   -2.1880    2.1050 c3        1 MOL     -0.374024
     55 C18         6.1410   -0.8290    1.7180 c         1 MOL      0.635862
     56 O9          6.5830   -0.1240    2.6070 o         1 MOL     -0.582305
     57 H25         4.1740   -3.3080    0.8500 hn        1 MOL      0.134209
     58 H26         6.3060   -2.7140    2.6070 h1        1 MOL      0.143294
     59 H27         4.5580   -2.0230    2.6400 h1        1 MOL      0.143294
     60 N6          6.2250   -0.4600    0.4630 n         1 MOL     -0.331350
     61 C19         6.8380    0.8180    0.0190 c3        1 MOL      0.048968
     62 C20         5.8600    1.8750   -0.5460 c         1 MOL      0.650168
     63 O10         4.6460    1.5400   -0.6910 o         1 MOL     -0.634971
     64 C21         7.8910    0.5860   -0.9970 c3        1 MOL     -0.430243
     65 C22         8.9040   -0.4650   -0.6910 c         1 MOL      0.752769
     66 N7          9.6150   -0.3450    0.4270 n         1 MOL     -0.843791
     67 O11         9.1540   -1.3820   -1.4780 o         1 MOL     -0.562370
     68 H28         5.8080   -1.0040   -0.2810 hn        1 MOL      0.398414
     69 H29         7.2430    1.3030    0.9180 h1        1 MOL      0.051644
     70 H30         8.4920    1.4970   -1.0910 hc        1 MOL      0.098641
     71 H31         7.3500    0.4310   -1.9310 hc        1 MOL      0.098641
     72 H32         9.3800    0.3570    1.1190 hn        1 MOL      0.391630
     73 H33        10.2360   -1.1300    0.5500 hn        1 MOL      0.391630
     74 N8          6.2720    3.0690   -0.8210 n         1 MOL     -0.447710
     75 C23         5.3290    4.1700   -1.1600 c3        1 MOL     -0.114828
     76 C24         4.1150    4.4250   -0.2320 c         1 MOL      0.769213
     77 O12         4.3060    4.5530    0.9460 o         1 MOL     -0.556110
     78 H34         7.2610    3.2660   -0.7240 hn        1 MOL      0.330602
     79 H35         4.9460    4.0380   -2.1740 h1        1 MOL      0.074638
     80 H36         5.8960    5.0940   -1.2010 h1        1 MOL      0.074638
     81 N9          2.9510    4.3890   -0.7480 n         1 MOL     -0.915691
     82 C25         1.6770    4.5980   -0.0170 c3        1 MOL      0.562864
     83 C26         1.2710    3.3400    0.7390 c         1 MOL      0.022963
     84 O13         1.7320    2.2090    0.5730 o         1 MOL     -0.255600
     85 C27         0.5840    5.2860   -0.8190 c3        1 MOL     -0.200824
     86 C28         0.7800    6.7550   -1.0260 ca        1 MOL      0.094510
     87 C29         0.8020    7.6530    0.0570 ca        1 MOL     -0.167449
     88 C30         0.8200    7.2890   -2.3930 ca        1 MOL     -0.167449
     89 C31         0.8090    9.0780   -0.2270 ca        1 MOL     -0.287049
     90 C32         0.9340    8.6600   -2.6500 ca        1 MOL     -0.287049
     91 C33         0.9030    9.5770   -1.5410 ca        1 MOL      0.378753
     92 O14         0.8830   10.8940   -1.7650 oh        1 MOL     -0.474450
     93 H37         2.8990    4.0530   -1.6990 hn        1 MOL      0.423610
     94 H38         1.8570    5.3400    0.7620 h1        1 MOL      0.029744
     95 H39        -0.3770    4.9510   -0.4390 hc        1 MOL      0.031300
     96 H40         0.6900    4.7580   -1.7570 hc        1 MOL      0.031300
     97 H41         0.6870    7.2540    1.0600 ha        1 MOL      0.133812
     98 H42         0.7200    6.5170   -3.1400 ha        1 MOL      0.133812
     99 H43         0.6560    9.7410    0.6050 ha        1 MOL      0.167880
    100 H44         1.0000    9.0830   -3.6520 ha        1 MOL      0.167880
    101 H45         0.8950   11.0780   -2.7030 ho        1 MOL      0.372205
    102 N10         0.4790    3.5840    1.8030 n         1 MOL     -0.254850
    103 C34        -0.0790    2.6270    2.7810 c3        1 MOL     -0.092663
    104 C35        -0.8540    1.3700    2.2790 c         1 MOL      0.563445
    105 O15        -0.4810    0.6620    1.3570 o         1 MOL     -0.521713
    106 C36         1.0310    2.2250    3.7820 c3        1 MOL      0.323922
    107 C37         0.3970    1.7470    5.1170 c3        1 MOL     -0.091850
    108 C38         1.9220    3.4810    4.0190 c3        1 MOL     -0.147221
    109 C39         1.4610    1.0490    5.9630 c3        1 MOL     -0.128278
    110 H46         0.0330    4.4930    1.8430 hn        1 MOL      0.254538
    111 H47        -0.7960    3.1810    3.3870 h1        1 MOL      0.030318
    112 H48         1.5260    1.3620    3.3410 hc        1 MOL     -0.011340
    113 H49        -0.3520    0.9920    4.8790 hc        1 MOL      0.014237
    114 H50        -0.1450    2.4770    5.6960 hc        1 MOL      0.014237
    115 H51         2.6530    3.2310    4.7910 hc        1 MOL      0.028850
    116 H52         2.3930    3.8890    3.1290 hc        1 MOL      0.028850
    117 H53         1.2570    4.3150    4.2670 hc        1 MOL      0.028850
    118 H54         1.0440    0.8830    6.9520 hc        1 MOL      0.043007
    119 H55         1.7360    0.0830    5.5420 hc        1 MOL      0.043007
    120 H56         2.2850    1.7330    6.1350 hc        1 MOL      0.043007
    121 N11        -2.0510    1.1260    2.7770 n         1 MOL     -0.492755
    122 C40        -3.0320    0.0420    2.5500 c3        1 MOL     -0.069793
    123 C41        -4.0670    0.1960    1.4610 c         1 MOL      0.403014
    124 O16        -5.0800   -0.5880    1.4370 o         1 MOL     -0.555902
    125 C42        -3.8580   -0.2300    3.8270 c3        1 MOL      0.293608
    126 O17        -3.1400   -0.1250    5.0740 oh        1 MOL     -0.612808
    127 H57        -2.2110    1.7230    3.5810 hn        1 MOL      0.242901
    128 H58        -2.5060   -0.8850    2.3030 h1        1 MOL      0.196140
    129 H59        -4.2510   -1.2570    3.8280 h1        1 MOL      0.035829
    130 H60        -4.7810    0.3330    3.9120 h1        1 MOL      0.035829
    131 H61        -3.0710    0.8190    5.2540 ho        1 MOL      0.371275
    132 N12        -3.8680    1.0370    0.4980 n         1 MOL     -0.238571
    133 C43        -4.7540    1.1290   -0.6950 c3        1 MOL     -0.054101
    134 C44        -4.1400    0.2130   -1.8000 c         1 MOL      0.775567
    135 O18        -2.9600    0.0930   -2.0330 o         1 MOL     -0.631623
    136 C45        -4.9520    2.5390   -1.2180 c3        1 MOL     -0.378212
    137 H62        -3.1040    1.6990    0.5870 hn        1 MOL      0.223080
    138 H63        -5.7370    0.7410   -0.4260 h1        1 MOL      0.178731
    139 H64        -3.9770    2.8410   -1.6070 hc        1 MOL      0.115509
    140 H65        -5.7960    2.8040   -1.8560 hc        1 MOL      0.115509
    141 H66        -5.1770    3.0460   -0.2780 hc        1 MOL      0.115509
    142 N13        -5.0420   -0.5570   -2.4120 n         1 MOL     -0.682328
    143 C46        -6.2980   -1.0640   -1.9210 c3        1 MOL      0.264045
    144 C47        -7.4720    0.0120   -2.2090 c         1 MOL      0.563182
    145 O19        -7.5080    0.5880   -3.2990 o         1 MOL     -0.565796
    146 C48        -6.5140   -2.3090   -2.7670 c3        1 MOL     -0.255073
    147 H67        -4.7460   -1.0730   -3.2240 hn        1 MOL      0.313128
    148 H68        -6.2530   -1.2870   -0.8550 h1        1 MOL      0.058489
    149 H69        -7.5380   -2.6810   -2.7340 hc        1 MOL      0.075061
    150 H70        -6.2250   -2.1670   -3.8150 hc        1 MOL      0.075061
    151 H71        -5.7930   -3.1100   -2.5890 hc        1 MOL      0.075061
    152 N14        -8.4080    0.1580   -1.3240 n         1 MOL     -0.452685
    153 C49        -8.5190   -0.3510    0.0410 c3        1 MOL     -0.617322
    154 C50        -9.1100    0.6120    1.1300 c         1 MOL      0.659646
    155 O20        -9.2800    0.1840    2.2750 o         1 MOL     -0.515694
    156 C51        -9.3700   -1.6420    0.0430 c3        1 MOL      0.400377
    157 C52       -10.7930   -1.3730   -0.4190 c3        1 MOL     -0.248427
    158 C53       -10.8670   -1.2380   -1.9730 c         1 MOL      0.725424
    159 O21       -10.3110   -2.1060   -2.7140 o         1 MOL     -0.666444
    160 O22       -11.4320   -0.2200   -2.3840 o         1 MOL     -0.666444
    161 H72        -9.1690    0.7180   -1.6910 hn        1 MOL      0.343358
    162 H73        -7.5200   -0.6950    0.2980 h1        1 MOL      0.223422
    163 H74        -9.3910   -2.1950    0.9780 hc        1 MOL     -0.062520
    164 H75        -8.9690   -2.3350   -0.6970 hc        1 MOL     -0.062520
    165 H76       -11.1340   -0.4450    0.0440 hc        1 MOL      0.037739
    166 H77       -11.4460   -2.1820   -0.1000 hc        1 MOL      0.037739
    167 N15        -9.4830    1.8920    0.8100 n         1 MOL     -0.348036
    168 C54       -10.1600    2.8430    1.7690 c3        1 MOL     -0.224940
    169 H78       -10.3910    3.7750    1.2530 h1        1 MOL      0.108060
    170 H79       -11.0830    2.3940    2.1370 h1        1 MOL      0.108060
    171 H80        -9.4950    3.0480    2.6090 h1        1 MOL      0.108060
    172 H81        -9.4470    2.2580   -0.1280 hn        1 MOL      0.284456
    173 Ca1         2.2990    0.4600   -1.3580 Ca        1 MOL      1.782960
    174 O23         1.6660    2.5110   -2.8890 oh        1 MOL     -0.833379
    175 H82         0.7300    2.5280   -3.0750 ho        1 MOL      0.403628
    176 H83         2.0650    2.9760   -3.6260 ho        1 MOL      0.403628
    177 O24        -0.3940    0.7800   -1.2110 oh        1 MOL     -0.833379
    178 H84        -1.2100    0.7470   -1.6980 ho        1 MOL      0.403628
    179 H85        -0.6540    0.9550   -0.3060 ho        1 MOL      0.403628
    180 O25         3.9600    0.9780   -3.7390 oh        1 MOL     -0.833379
    181 H86         4.1430    0.0370   -3.7270 ho        1 MOL      0.403628
    182 H87         4.7570    1.3780   -4.0640 ho        1 MOL      0.403628
    183 O26         1.1630   -1.1120   -3.1590 oh        1 MOL     -0.833379
    184 H88         0.4860   -1.7940   -3.1670 ho        1 MOL      0.403628
    185 H89         1.6730   -1.2800   -3.9470 ho        1 MOL      0.403628
@<TRIPOS>BOND
     1    1    2 1   
     2    1    4 1   
     3    1    5 1   
     4    1    6 1   
     5    2    3 2   
     6    2    7 1   
     7    7    8 1   
     8    7   15 1   
     9    8    9 1   
    10    8   11 1   
    11    8   16 1   
    12    9   10 2   
    13    9   19 1   
    14   11   12 1   
    15   11   17 1   
    16   11   18 1   
    17   12   13 1   
    18   12   14 1   
    19   19   20 1   
    20   19   28 1   
    21   20   21 1   
    22   20   23 1   
    23   20   29 1   
    24   21   22 2   
    25   21   41 1   
    26   23   24 1   
    27   23   30 1   
    28   23   31 1   
    29   24   25 1   
    30   24   32 1   
    31   24   33 1   
    32   25   26 1   
    33   25   34 1   
    34   25   35 1   
    35   26   27 1   
    36   26   36 1   
    37   26   37 1   
    38   27   38 1   
    39   27   39 1   
    40   27   40 1   
    41   41   42 1   
    42   41   49 1   
    43   42   43 1   
    44   42   45 1   
    45   42   50 1   
    46   43   44 2   
    47   43   53 1   
    48   45   46 1   
    49   45   51 1   
    50   45   52 1   
    51   46   47 1   
    52   46   48 1   
    53   53   54 1   
    54   53   57 1   
    55   54   55 1   
    56   54   58 1   
    57   54   59 1   
    58   55   56 2   
    59   55   60 1   
    60   60   61 1   
    61   60   68 1   
    62   61   62 1   
    63   61   64 1   
    64   61   69 1   
    65   62   63 2   
    66   62   74 1   
    67   64   65 1   
    68   64   70 1   
    69   64   71 1   
    70   65   66 1   
    71   65   67 2   
    72   66   72 1   
    73   66   73 1   
    74   74   75 1   
    75   74   78 1   
    76   75   76 1   
    77   75   79 1   
    78   75   80 1   
    79   76   77 2   
    80   76   81 1   
    81   81   82 1   
    82   81   93 1   
    83   82   83 1   
    84   82   85 1   
    85   82   94 1   
    86   83   84 2   
    87   83  102 1   
    88   85   86 1   
    89   85   95 1   
    90   85   96 1   
    91   86   87 ar  
    92   86   88 ar  
    93   87   89 ar  
    94   87   97 1   
    95   88   90 ar  
    96   88   98 1   
    97   89   91 ar  
    98   89   99 1   
    99   90   91 ar  
   100   90  100 1   
   101   91   92 1   
   102   92  101 1   
   103  102  103 1   
   104  102  110 1   
   105  103  104 1   
   106  103  106 1   
   107  103  111 1   
   108  104  105 2   
   109  104  121 1   
   110  106  107 1   
   111  106  108 1   
   112  106  112 1   
   113  107  109 1   
   114  107  113 1   
   115  107  114 1   
   116  108  115 1   
   117  108  116 1   
   118  108  117 1   
   119  109  118 1   
   120  109  119 1   
   121  109  120 1   
   122  121  122 1   
   123  121  127 1   
   124  122  123 1   
   125  122  125 1   
   126  122  128 1   
   127  123  124 2   
   128  123  132 1   
   129  125  126 1   
   130  125  129 1   
   131  125  130 1   
   132  126  131 1   
   133  132  133 1   
   134  132  137 1   
   135  133  134 1   
   136  133  136 1   
   137  133  138 1   
   138  134  135 2   
   139  134  142 1   
   140  136  139 1   
   141  136  140 1   
   142  136  141 1   
   143  142  143 1   
   144  142  147 1   
   145  143  144 1   
   146  143  146 1   
   147  143  148 1   
   148  144  145 2   
   149  144  152 1   
   150  146  149 1   
   151  146  150 1   
   152  146  151 1   
   153  152  153 1   
   154  152  161 1   
   155  153  154 1   
   156  153  156 1   
   157  153  162 1   
   158  154  155 2   
   159  154  167 1   
   160  156  157 1   
   161  156  163 1   
   162  156  164 1   
   163  157  158 1   
   164  157  165 1   
   165  157  166 1   
   166  158  159 1   
   167  158  160 1   
   168  167  168 1   
   169  167  172 1   
   170  168  169 1   
   171  168  170 1   
   172  168  171 1   
   173  174  175 1   
   174  174  176 1   
   175  177  178 1   
   176  177  179 1   
   177  180  181 1   
   178  180  182 1   
   179  183  184 1   
   180  183  185 1   
@<TRIPOS>SUBSTRUCTURE
     1 MOL         1 TEMP              0 ****  ****    0 ROOT
