@<TRIPOS>MOLECULE
MOL
  179   176     1     0     0
SMALL
resp


@<TRIPOS>ATOM
      1 C1          1.7020   -4.2630    6.4830 c3        1 MOL     -0.377979
      2 C2          1.6550   -3.9420    4.9850 c         1 MOL      0.780445
      3 O1          0.6550   -4.2090    4.2970 o         1 MOL     -0.626770
      4 H1          0.8060   -4.8170    6.7640 hc        1 MOL      0.109580
      5 H2          2.5840   -4.8670    6.6990 hc        1 MOL      0.109580
      6 H3          1.7480   -3.3350    7.0530 hc        1 MOL      0.109580
      7 N1          2.7070   -3.3920    4.3850 n         1 MOL     -0.595717
      8 C3          2.7620   -2.8450    3.0030 c3        1 MOL      0.029198
      9 C4          2.8130   -4.0220    2.0240 c         1 MOL      0.823489
     10 O2          3.5370   -4.9330    2.2590 o         1 MOL     -0.601703
     11 C5          3.8680   -1.8070    2.8080 c3        1 MOL      0.001865
     12 C6          3.9000   -1.1190    1.4890 c         1 MOL      0.513714
     13 O3          4.2960    0.0830    1.3580 o         1 MOL     -0.661245
     14 O4          3.4280   -1.6660    0.4670 o         1 MOL     -0.661245
     15 H4          3.5090   -3.4060    5.0060 hn        1 MOL      0.305509
     16 H5          1.7950   -2.4020    2.7420 h1        1 MOL     -0.133805
     17 H6          4.8310   -2.3020    2.8760 hc        1 MOL      0.041339
     18 H7          3.8280   -1.1190    3.6580 hc        1 MOL      0.041339
     19 N2          2.0150   -3.9250    0.9640 n         1 MOL     -0.485074
     20 C7          1.9340   -4.9670   -0.0900 c3        1 MOL      0.007692
     21 C8          3.1500   -4.9910   -1.0180 c         1 MOL      0.466870
     22 O5          3.3790   -6.0000   -1.7150 o         1 MOL     -0.550036
     23 C9          0.6430   -4.7290   -0.9010 c3        1 MOL      0.066949
     24 C10         0.3480   -5.6940   -2.0600 c3        1 MOL      0.004641
     25 C11         0.3320   -5.0210   -3.4000 c3        1 MOL     -0.019758
     26 C12        -0.0480   -6.0400   -4.4180 c3        1 MOL      0.200676
     27 N3          0.1520   -5.6500   -5.8440 n4        1 MOL     -0.234698
     28 H8          1.6540   -2.9900    0.8230 hn        1 MOL      0.269718
     29 H9          1.7910   -5.9890    0.2560 h1        1 MOL      0.095359
     30 H10         0.7020   -3.7010   -1.2700 hc        1 MOL     -0.014715
     31 H11        -0.1040   -4.6400   -0.1150 hc        1 MOL     -0.014715
     32 H12        -0.5550   -6.2560   -1.8220 hc        1 MOL      0.019716
     33 H13         1.1150   -6.4700   -2.0950 hc        1 MOL      0.019716
     34 H14         1.3100   -4.6530   -3.6970 hc        1 MOL      0.000332
     35 H15        -0.4110   -4.2250   -3.4070 hc        1 MOL      0.000332
     36 H16        -1.1050   -6.2440   -4.2440 hx        1 MOL      0.019990
     37 H17         0.4450   -7.0070   -4.2830 hx        1 MOL      0.019990
     38 H18        -0.5020   -4.9060   -6.0700 hn        1 MOL      0.237860
     39 H19         1.0270   -5.1630   -5.9690 hn        1 MOL      0.237860
     40 H20        -0.0050   -6.4430   -6.4390 hn        1 MOL      0.237860
     41 N4          3.9030   -3.8750   -1.1460 n         1 MOL     -0.386622
     42 C13         4.9160   -3.7170   -2.1810 c3        1 MOL      0.280229
     43 C14         6.2520   -3.1070   -1.5900 c         1 MOL      0.313893
     44 O6          7.2890   -3.1240   -2.2270 o         1 MOL     -0.492695
     45 C15         4.3330   -2.8560   -3.2180 c3        1 MOL     -0.409641
     46 C16         3.7110   -1.5730   -2.6320 c         1 MOL      0.884259
     47 O7          2.4490   -1.3880   -2.4880 o         1 MOL     -0.809543
     48 O8          4.4570   -0.6390   -2.3340 o         1 MOL     -0.809543
     49 H21         3.6560   -3.0340   -0.6350 hn        1 MOL      0.191341
     50 H22         5.2560   -4.6440   -2.6530 h1        1 MOL      0.065554
     51 H23         3.5460   -3.4480   -3.6910 hc        1 MOL      0.105407
     52 H24         5.0480   -2.5420   -3.9780 hc        1 MOL      0.105407
     53 N5          6.1150   -2.4570   -0.3880 n         1 MOL     -0.118136
     54 C17         7.2510   -1.7600    0.3840 c3        1 MOL     -0.168129
     55 C18         7.5960   -0.3400   -0.0440 c         1 MOL      0.585595
     56 O9          8.6430    0.1160    0.3520 o         1 MOL     -0.565566
     57 H25         5.2200   -2.5670    0.0590 hn        1 MOL      0.083622
     58 H26         8.1880   -2.3080    0.2900 h1        1 MOL      0.108530
     59 H27         7.0670   -1.7210    1.4510 h1        1 MOL      0.108530
     60 N6          6.7530    0.4050   -0.7660 n         1 MOL     -0.358834
     61 C19         6.9300    1.8170   -1.0760 c3        1 MOL     -0.036115
     62 C20         5.6390    2.6050   -0.8080 c         1 MOL      0.737358
     63 O10         4.4900    2.1420   -0.9620 o         1 MOL     -0.661717
     64 C21         7.4250    1.8040   -2.5800 c3        1 MOL     -0.051762
     65 C22         6.4840    2.1990   -3.6500 c         1 MOL      0.415205
     66 N7          5.3930    1.4910   -3.8620 n         1 MOL     -0.562982
     67 O11         6.6100    3.3200   -4.2530 o         1 MOL     -0.568430
     68 H28         5.8940   -0.0200   -1.0620 hn        1 MOL      0.311514
     69 H29         7.7300    2.2590   -0.4890 h1        1 MOL      0.081966
     70 H30         7.8620    0.8440   -2.8690 hc        1 MOL      0.060289
     71 H31         8.2510    2.5200   -2.5730 hc        1 MOL      0.060289
     72 H32         5.3530    0.6110   -3.3820 hn        1 MOL      0.310192
     73 H33         4.8310    1.7350   -4.6670 hn        1 MOL      0.310192
     74 N8          5.8780    3.8900   -0.4390 n         1 MOL     -0.576452
     75 C23         4.8110    4.9410   -0.5570 c3        1 MOL     -0.005059
     76 C24         3.8080    4.8050    0.5300 c         1 MOL      0.541790
     77 O12         4.0810    4.7210    1.7600 o         1 MOL     -0.499914
     78 H34         6.8220    4.2510   -0.4070 hn        1 MOL      0.358990
     79 H35         4.4910    4.8180   -1.5820 h1        1 MOL      0.097725
     80 H36         5.2680    5.9280   -0.6120 h1        1 MOL      0.097725
     81 N9          2.4900    4.8130    0.2190 n         1 MOL     -0.576699
     82 C25         1.3780    4.5700    1.1340 c3        1 MOL      0.208209
     83 C26         1.4700    3.0850    1.5050 c         1 MOL      0.687906
     84 O13         1.9250    2.2250    0.7710 o         1 MOL     -0.524889
     85 C27         0.0260    5.0320    0.5420 c3        1 MOL     -0.216660
     86 C28         0.1820    6.3670   -0.1130 ca        1 MOL      0.087466
     87 C29         0.5770    7.4680    0.6580 ca        1 MOL     -0.111129
     88 C30        -0.1610    6.5980   -1.4270 ca        1 MOL     -0.111129
     89 C31         0.6260    8.8050    0.1230 ca        1 MOL     -0.310789
     90 C32         0.0500    7.8330   -2.0340 ca        1 MOL     -0.310789
     91 C33         0.4440    8.9360   -1.2780 ca        1 MOL      0.373665
     92 O14         0.6280   10.1770   -1.8620 oh        1 MOL     -0.490570
     93 H37         2.2190    4.8880   -0.7540 hn        1 MOL      0.243876
     94 H38         1.5420    5.1780    2.0260 h1        1 MOL      0.060624
     95 H39        -0.7240    5.0870    1.3250 hc        1 MOL      0.069840
     96 H40        -0.3010    4.2390   -0.1280 hc        1 MOL      0.069840
     97 H41         0.8380    7.4900    1.7020 ha        1 MOL      0.120525
     98 H42        -0.6940    5.8220   -1.9600 ha        1 MOL      0.120525
     99 H43         0.9170    9.6860    0.6860 ha        1 MOL      0.175326
    100 H44        -0.0750    7.8750   -3.1070 ha        1 MOL      0.175326
    101 H45         0.8410   10.7840   -1.1520 ho        1 MOL      0.371888
    102 N10         0.9060    2.7370    2.6300 n         1 MOL     -0.818189
    103 C34         0.6760    1.3320    3.2170 c3        1 MOL      0.336854
    104 C35         0.1270    0.2450    2.2290 c         1 MOL      0.378673
    105 O15         0.9800   -0.4260    1.5590 o         1 MOL     -0.450095
    106 C36         1.8420    0.9270    4.1640 c3        1 MOL      0.355972
    107 C37         1.4640   -0.2800    5.0280 c3        1 MOL     -0.135259
    108 C38         2.4870    2.0900    5.0130 c3        1 MOL     -0.211451
    109 C39         0.3220   -0.0430    6.0580 c3        1 MOL     -0.089000
    110 H46         0.4550    3.4920    3.1220 hn        1 MOL      0.339103
    111 H47        -0.1360    1.5200    3.9270 h1        1 MOL      0.002249
    112 H48         2.6730    0.5590    3.5640 hc        1 MOL     -0.051828
    113 H49         2.2920   -0.6070    5.6490 hc        1 MOL      0.049105
    114 H50         1.2800   -1.1260    4.3710 hc        1 MOL      0.049105
    115 H51         1.6510    2.5710    5.5130 hc        1 MOL      0.044453
    116 H52         3.1190    1.6010    5.7530 hc        1 MOL      0.044453
    117 H53         3.0490    2.8200    4.4390 hc        1 MOL      0.044453
    118 H54        -0.6340    0.0990    5.5710 hc        1 MOL      0.012965
    119 H55         0.2530   -0.8580    6.7840 hc        1 MOL      0.012965
    120 H56         0.6040    0.8970    6.5290 hc        1 MOL      0.012965
    121 N11        -1.1810   -0.1010    2.2630 n         1 MOL     -0.409335
    122 C40        -1.7550   -1.2290    1.4930 c3        1 MOL     -0.035240
    123 C41        -3.2460   -0.8520    1.2410 c         1 MOL      0.550226
    124 O16        -3.9370   -0.6020    2.2810 o         1 MOL     -0.538291
    125 C42        -1.7950   -2.5090    2.3060 c3        1 MOL      0.219541
    126 O17        -0.5650   -3.0470    2.2520 oh        1 MOL     -0.451877
    127 H57        -1.8260    0.5090    2.7260 hn        1 MOL      0.272426
    128 H58        -1.1930   -1.3750    0.5740 h1        1 MOL      0.113211
    129 H59        -2.4700   -3.2170    1.8250 h1        1 MOL      0.008539
    130 H60        -2.2680   -2.2760    3.2520 h1        1 MOL      0.008539
    131 H61        -0.2810   -3.3280    3.1270 ho        1 MOL      0.372226
    132 N12        -3.8010   -0.8590    0.0520 n         1 MOL     -0.604893
    133 C43        -5.2160   -0.6370   -0.2460 c3        1 MOL      0.383262
    134 C44        -5.5160   -1.5080   -1.5420 c         1 MOL      0.490343
    135 O18        -4.6210   -2.0280   -2.1950 o         1 MOL     -0.558254
    136 C45        -5.3990    0.8880   -0.6270 c3        1 MOL     -0.086811
    137 H62        -3.2650   -1.0000   -0.7920 hn        1 MOL      0.255475
    138 H63        -5.9270   -0.9190    0.5320 h1        1 MOL      0.035195
    139 H64        -5.4740    1.4720    0.2900 hc        1 MOL      0.019226
    140 H65        -4.6720    1.2830   -1.3340 hc        1 MOL      0.019226
    141 H66        -6.3470    0.8730   -1.1710 hc        1 MOL      0.019226
    142 N13        -6.7190   -1.6800   -2.0560 n         1 MOL     -0.549338
    143 C46        -8.0390   -1.4010   -1.4810 c3        1 MOL      0.373339
    144 C47        -8.8070   -0.1800   -2.0590 c         1 MOL      0.529100
    145 O19        -8.4060    0.2760   -3.1520 o         1 MOL     -0.574244
    146 C48        -8.8250   -2.6740   -1.8000 c3        1 MOL     -0.465002
    147 H67        -6.7440   -2.2530   -2.8800 hn        1 MOL      0.328771
    148 H68        -7.9620   -1.3580   -0.3940 h1        1 MOL     -0.029763
    149 H69        -9.1490   -2.6040   -2.8280 hc        1 MOL      0.127184
    150 H70        -8.2420   -3.5950   -1.6850 hc        1 MOL      0.127184
    151 H71        -9.7700   -2.5730   -1.2570 hc        1 MOL      0.127184
    152 N14        -9.7710    0.3410   -1.3450 n         1 MOL     -0.530414
    153 C49       -10.2600    0.0800    0.0010 c3        1 MOL     -0.126072
    154 C50        -9.4800    0.8950    1.0890 c         1 MOL      0.454735
    155 O20        -8.8290    0.3880    1.9970 o         1 MOL     -0.505757
    156 C51       -11.7680    0.3160    0.1460 c3        1 MOL      0.119528
    157 C52       -12.5890   -0.6770   -0.6910 c3        1 MOL     -0.128475
    158 C53       -14.0170   -0.2310   -0.8520 c         1 MOL      0.565424
    159 O21       -14.9660   -0.8220   -0.2000 o         1 MOL     -0.623975
    160 O22       -14.2810    0.8490   -1.4370 o         1 MOL     -0.623975
    161 H72       -10.3210    0.9490   -1.9320 hn        1 MOL      0.354909
    162 H73       -10.1290   -0.9790    0.2610 h1        1 MOL      0.123172
    163 H74       -11.9060    1.3100   -0.2860 hc        1 MOL      0.017119
    164 H75       -12.1150    0.1560    1.1680 hc        1 MOL      0.017119
    165 H76       -12.5500   -1.6600   -0.2160 hc        1 MOL      0.019442
    166 H77       -12.2140   -0.8140   -1.7110 hc        1 MOL      0.019442
    167 N15        -9.5560    2.2020    0.9520 n         1 MOL     -0.361690
    168 C54        -8.7810    3.1560    1.7730 c3        1 MOL     -0.196073
    169 H78        -8.1580    3.7710    1.1230 h1        1 MOL      0.112001
    170 H79        -9.4660    3.7940    2.3310 h1        1 MOL      0.112001
    171 H80        -8.1470    2.6050    2.4680 h1        1 MOL      0.112001
    172 H81       -10.1290    2.5680    0.2130 hn        1 MOL      0.301490
    173 Ca1         2.4920    0.4680   -0.8710 Ca        1 MOL      1.767331
    174 O23         1.9560    1.7200   -3.0170 oh        1 MOL     -0.896531
    175 H82         2.1710    1.4570   -3.9150 ho        1 MOL      0.437336
    176 H83         1.7530    2.6560   -3.0750 ho        1 MOL      0.437336
    177 O24        -0.2070    0.6250   -0.9710 oh        1 MOL     -0.896531
    178 H84        -0.6330   -0.1850   -1.2300 ho        1 MOL      0.437336
    179 H85        -0.8090    1.3180   -1.2570 ho        1 MOL      0.437336
@<TRIPOS>BOND
     1    1    2 1   
     2    1    4 1   
     3    1    5 1   
     4    1    6 1   
     5    2    3 2   
     6    2    7 1   
     7    7    8 1   
     8    7   15 1   
     9    8    9 1   
    10    8   11 1   
    11    8   16 1   
    12    9   10 2   
    13    9   19 1   
    14   11   12 1   
    15   11   17 1   
    16   11   18 1   
    17   12   13 1   
    18   12   14 1   
    19   19   20 1   
    20   19   28 1   
    21   20   21 1   
    22   20   23 1   
    23   20   29 1   
    24   21   22 2   
    25   21   41 1   
    26   23   24 1   
    27   23   30 1   
    28   23   31 1   
    29   24   25 1   
    30   24   32 1   
    31   24   33 1   
    32   25   26 1   
    33   25   34 1   
    34   25   35 1   
    35   26   27 1   
    36   26   36 1   
    37   26   37 1   
    38   27   38 1   
    39   27   39 1   
    40   27   40 1   
    41   41   42 1   
    42   41   49 1   
    43   42   43 1   
    44   42   45 1   
    45   42   50 1   
    46   43   44 2   
    47   43   53 1   
    48   45   46 1   
    49   45   51 1   
    50   45   52 1   
    51   46   47 1   
    52   46   48 1   
    53   53   54 1   
    54   53   57 1   
    55   54   55 1   
    56   54   58 1   
    57   54   59 1   
    58   55   56 2   
    59   55   60 1   
    60   60   61 1   
    61   60   68 1   
    62   61   62 1   
    63   61   64 1   
    64   61   69 1   
    65   62   63 2   
    66   62   74 1   
    67   64   65 1   
    68   64   70 1   
    69   64   71 1   
    70   65   66 1   
    71   65   67 2   
    72   66   72 1   
    73   66   73 1   
    74   74   75 1   
    75   74   78 1   
    76   75   76 1   
    77   75   79 1   
    78   75   80 1   
    79   76   77 2   
    80   76   81 1   
    81   81   82 1   
    82   81   93 1   
    83   82   83 1   
    84   82   85 1   
    85   82   94 1   
    86   83   84 2   
    87   83  102 1   
    88   85   86 1   
    89   85   95 1   
    90   85   96 1   
    91   86   87 ar  
    92   86   88 ar  
    93   87   89 ar  
    94   87   97 1   
    95   88   90 ar  
    96   88   98 1   
    97   89   91 ar  
    98   89   99 1   
    99   90   91 ar  
   100   90  100 1   
   101   91   92 1   
   102   92  101 1   
   103  102  103 1   
   104  102  110 1   
   105  103  104 1   
   106  103  106 1   
   107  103  111 1   
   108  104  105 2   
   109  104  121 1   
   110  106  107 1   
   111  106  108 1   
   112  106  112 1   
   113  107  109 1   
   114  107  113 1   
   115  107  114 1   
   116  108  115 1   
   117  108  116 1   
   118  108  117 1   
   119  109  118 1   
   120  109  119 1   
   121  109  120 1   
   122  121  122 1   
   123  121  127 1   
   124  122  123 1   
   125  122  125 1   
   126  122  128 1   
   127  123  124 2   
   128  123  132 1   
   129  125  126 1   
   130  125  129 1   
   131  125  130 1   
   132  126  131 1   
   133  132  133 1   
   134  132  137 1   
   135  133  134 1   
   136  133  136 1   
   137  133  138 1   
   138  134  135 2   
   139  134  142 1   
   140  136  139 1   
   141  136  140 1   
   142  136  141 1   
   143  142  143 1   
   144  142  147 1   
   145  143  144 1   
   146  143  146 1   
   147  143  148 1   
   148  144  145 2   
   149  144  152 1   
   150  146  149 1   
   151  146  150 1   
   152  146  151 1   
   153  152  153 1   
   154  152  161 1   
   155  153  154 1   
   156  153  156 1   
   157  153  162 1   
   158  154  155 2   
   159  154  167 1   
   160  156  157 1   
   161  156  163 1   
   162  156  164 1   
   163  157  158 1   
   164  157  165 1   
   165  157  166 1   
   166  158  159 1   
   167  158  160 1   
   168  167  168 1   
   169  167  172 1   
   170  168  169 1   
   171  168  170 1   
   172  168  171 1   
   173  174  175 1   
   174  174  176 1   
   175  177  178 1   
   176  177  179 1   
@<TRIPOS>SUBSTRUCTURE
     1 MOL         1 TEMP              0 ****  ****    0 ROOT
