@<TRIPOS>MOLECULE
MOL
  201   193     1     0     0
SMALL
resp


@<TRIPOS>ATOM
      1 C1         -2.2590    5.2220    2.1000 c3        1 MOL     -0.463376
      2 C2         -3.4970    4.3590    2.4280 c         1 MOL      0.711567
      3 O1         -3.5070    3.6110    3.4150 o         1 MOL     -0.642194
      4 H1         -1.8940    5.6930    3.0120 hc        1 MOL      0.117589
      5 H2         -1.4760    4.5900    1.6780 hc        1 MOL      0.117589
      6 H3         -2.5330    5.9910    1.3780 hc        1 MOL      0.117589
      7 N1         -4.5060    4.4490    1.6480 n         1 MOL     -0.530301
      8 C3         -5.7190    3.6240    1.8710 c3        1 MOL      0.169414
      9 C4         -5.6040    2.1440    1.4820 c         1 MOL      0.548446
     10 O2         -4.8990    1.6940    0.6030 o         1 MOL     -0.629077
     11 C5         -6.9640    4.2920    1.2600 c3        1 MOL     -0.187274
     12 C6         -6.7450    4.9790   -0.0640 c         1 MOL      0.698806
     13 O3         -7.2740    4.4740   -1.0580 o         1 MOL     -0.719850
     14 O4         -5.9560    5.9610   -0.1050 o         1 MOL     -0.719850
     15 H4         -4.5040    5.1550    0.9300 hn        1 MOL      0.346294
     16 H5         -5.8350    3.5840    2.9540 h1        1 MOL      0.050756
     17 H6         -7.1990    4.9870    2.0660 hc        1 MOL      0.067926
     18 H7         -7.8600    3.6750    1.2410 hc        1 MOL      0.067926
     19 N2         -6.3950    1.2970    2.0830 n         1 MOL     -0.707137
     20 C7         -6.2760   -0.1970    1.9610 c3        1 MOL      0.759481
     21 C8         -7.5640   -0.9430    1.5040 c         1 MOL      0.131688
     22 O5         -7.8950   -1.9220    2.1000 o         1 MOL     -0.521529
     23 C9         -5.7590   -0.7130    3.2840 c3        1 MOL     -0.433194
     24 C10        -5.2100   -2.1170    3.2560 c3        1 MOL      0.199476
     25 C11        -4.7380   -2.5300    4.6900 c3        1 MOL      0.112330
     26 C12        -4.7070   -4.0310    4.9400 c3        1 MOL     -0.175082
     27 N3         -3.5570   -4.7290    4.2730 n4        1 MOL     -0.286325
     28 H8         -7.0640    1.6430    2.7470 hn        1 MOL      0.297492
     29 H9         -5.5790   -0.3760    1.1470 h1        1 MOL      0.031117
     30 H10        -6.5910   -0.6940    3.9850 hc        1 MOL      0.106291
     31 H11        -4.9150   -0.1070    3.5950 hc        1 MOL      0.106291
     32 H12        -4.2410   -2.0780    2.7600 hc        1 MOL     -0.032349
     33 H13        -5.8660   -2.9080    2.8910 hc        1 MOL     -0.032349
     34 H14        -5.3760   -2.0780    5.4500 hc        1 MOL     -0.014696
     35 H15        -3.7360   -2.1580    4.9280 hc        1 MOL     -0.014696
     36 H16        -5.6370   -4.4610    4.5800 hx        1 MOL      0.134980
     37 H17        -4.5540   -4.1730    6.0130 hx        1 MOL      0.134980
     38 H18        -3.3330   -5.5230    4.8520 hn        1 MOL      0.305277
     39 H19        -3.8280   -5.0450    3.3580 hn        1 MOL      0.305277
     40 H20        -2.7320   -4.1430    4.2250 hn        1 MOL      0.305277
     41 N4         -8.3130   -0.2270    0.6490 n         1 MOL      0.002303
     42 C13        -9.6810   -0.5300    0.2330 c3        1 MOL      0.149396
     43 C14        -9.6990   -0.8940   -1.2250 c         1 MOL      0.460765
     44 O6         -9.3450   -0.1420   -2.0890 o         1 MOL     -0.657028
     45 C15       -10.5980    0.5980    0.6660 c3        1 MOL     -0.157414
     46 C16       -10.2660    2.0430    0.2250 c         1 MOL      0.590998
     47 O7        -10.9540    2.9660    0.6010 o         1 MOL     -0.661877
     48 O8         -9.2750    2.3160   -0.4650 o         1 MOL     -0.661877
     49 H21        -7.8690    0.5930    0.2730 hn        1 MOL      0.018743
     50 H22       -10.1300   -1.3660    0.7720 h1        1 MOL      0.048997
     51 H23       -10.6520    0.5640    1.7460 hc        1 MOL      0.040584
     52 H24       -11.5620    0.3750    0.2170 hc        1 MOL      0.040584
     53 N5        -10.1090   -2.1230   -1.6430 n         1 MOL     -0.407903
     54 C17       -10.4390   -3.3870   -0.8840 c3        1 MOL     -0.210363
     55 C18        -9.2060   -4.1320   -0.4440 c         1 MOL      0.558981
     56 O9         -9.4140   -5.1890    0.1690 o         1 MOL     -0.539798
     57 H25       -10.0860   -2.1530   -2.6510 hn        1 MOL      0.302870
     58 H26       -11.0040   -4.0620   -1.5310 h1        1 MOL      0.134419
     59 H27       -11.0590   -3.2280   -0.0000 h1        1 MOL      0.134419
     60 N6         -8.0260   -3.6220   -0.9000 n         1 MOL     -0.286210
     61 C19        -6.6170   -4.0910   -0.4920 c3        1 MOL     -0.139266
     62 C20        -5.7240   -2.8700   -0.6240 c         1 MOL      0.213805
     63 O10        -6.2420   -1.8340   -1.0120 o         1 MOL     -0.360420
     64 C21        -6.1110   -5.2770   -1.3450 c3        1 MOL     -0.040113
     65 C22        -6.4890   -5.2760   -2.8800 c         1 MOL      0.630864
     66 O11        -5.9350   -4.3970   -3.5620 o         1 MOL     -0.662078
     67 O12        -7.2550   -6.1250   -3.3800 o         1 MOL     -0.662078
     68 H28        -8.0130   -2.6800   -1.2710 hn        1 MOL      0.272746
     69 H29        -6.6580   -4.3540    0.5670 h1        1 MOL      0.111038
     70 H30        -6.5490   -6.1880   -0.9420 hc        1 MOL      0.007961
     71 H31        -5.0390   -5.4750   -1.2640 hc        1 MOL      0.007961
     72 N7         -4.4280   -2.8530   -0.2920 n         1 MOL     -0.105523
     73 C23        -3.4630   -1.7810   -0.3460 c3        1 MOL     -0.378462
     74 C24        -2.2080   -2.0030    0.5720 c         1 MOL      0.772595
     75 O13        -1.9880   -3.0330    1.2090 o         1 MOL     -0.639083
     76 H32        -4.1350   -3.6950    0.1850 hn        1 MOL      0.185244
     77 H33        -3.8760   -0.7960   -0.1260 h1        1 MOL      0.147567
     78 H34        -2.9460   -1.7940   -1.3060 h1        1 MOL      0.147567
     79 N8         -1.4050   -0.9690    0.6850 n         1 MOL     -0.534788
     80 C25        -0.3090   -0.8640    1.5770 c3        1 MOL     -0.005182
     81 C26         0.8080    0.0180    1.0020 c         1 MOL      0.545620
     82 O14         0.5560    0.6660   -0.0530 o         1 MOL     -0.487691
     83 C27        -0.7270   -0.2970    2.9570 c3        1 MOL      0.132365
     84 C28        -0.9630    1.2300    2.9190 c3        1 MOL     -0.305229
     85 O15        -1.9320   -0.8450    3.4670 oh        1 MOL     -0.474050
     86 H35        -1.7620   -0.1470    0.2140 hn        1 MOL      0.317365
     87 H36         0.0520   -1.8900    1.6400 h1        1 MOL      0.081698
     88 H37         0.0550   -0.5100    3.6880 h1        1 MOL      0.020379
     89 H38        -1.6750   -1.7350    3.7490 ho        1 MOL      0.338095
     90 H39        -0.8780    1.6970    3.9020 hc        1 MOL      0.120659
     91 H40        -0.1180    1.7290    2.4380 hc        1 MOL      0.120659
     92 H41        -1.8390    1.4670    2.3050 hc        1 MOL      0.120659
     93 N9          1.9340    0.0780    1.7330 n         1 MOL     -0.539096
     94 C29         2.8830    1.2060    1.3870 c3        1 MOL     -0.123842
     95 C30         3.8700    0.6000    0.3130 c         1 MOL      0.535668
     96 O16         4.2010    1.2860   -0.6670 o         1 MOL     -0.530502
     97 C31         3.5950    1.7060    2.6300 c3        1 MOL      0.079484
     98 C32         2.6310    1.9680    3.7800 c3        1 MOL      0.036877
     99 C33         4.4010    3.0710    2.3370 c3        1 MOL     -0.381179
    100 C34         3.3000    2.3980    5.0500 c3        1 MOL     -0.210189
    101 H42         2.0230   -0.4980    2.5680 hn        1 MOL      0.289490
    102 H43         2.3170    1.9730    0.8580 h1        1 MOL      0.148471
    103 H44         4.3080    0.8860    2.7730 hc        1 MOL      0.024721
    104 H45         1.9640    1.1510    4.0480 hc        1 MOL      0.043067
    105 H46         2.0570    2.8790    3.6030 hc        1 MOL      0.043067
    106 H47         3.6950    3.9020    2.2670 hc        1 MOL      0.125116
    107 H48         5.0210    3.3530    3.1860 hc        1 MOL      0.125116
    108 H49         5.1070    2.9610    1.5120 hc        1 MOL      0.125116
    109 H50         3.7250    3.3870    4.9380 hc        1 MOL      0.048079
    110 H51         2.5480    2.2550    5.8330 hc        1 MOL      0.048079
    111 H52         4.0850    1.6860    5.2890 hc        1 MOL      0.048079
    112 N10         4.2100   -0.6600    0.4680 n         1 MOL     -0.282237
    113 C35         5.0610   -1.4290   -0.4710 c3        1 MOL     -0.152032
    114 C36         6.1090   -2.2200    0.3390 c         1 MOL      0.590229
    115 O17         5.8040   -2.5390    1.4600 o         1 MOL     -0.540875
    116 C37         4.3730   -2.4240   -1.3670 c3        1 MOL      0.387249
    117 C38         3.0940   -1.9680   -2.0620 c3        1 MOL     -0.437929
    118 O18         5.3490   -2.8480   -2.3530 oh        1 MOL     -0.632850
    119 H53         3.8980   -1.1180    1.3140 hn        1 MOL      0.233647
    120 H54         5.5830   -0.7450   -1.1360 h1        1 MOL      0.124360
    121 H55         4.1030   -3.2950   -0.7640 h1        1 MOL     -0.004276
    122 H56         4.8660   -3.4260   -2.9590 ho        1 MOL      0.404675
    123 H57         2.9010   -2.5850   -2.9420 hc        1 MOL      0.129453
    124 H58         2.2820   -2.0510   -1.3520 hc        1 MOL      0.129453
    125 H59         3.1730   -0.9300   -2.4100 hc        1 MOL      0.129453
    126 N11         7.3110   -2.4810   -0.1810 n         1 MOL     -0.500024
    127 C39         8.3790   -3.1510    0.5430 c3        1 MOL     -0.102560
    128 C40         9.6660   -2.4360    0.5010 c         1 MOL      0.706009
    129 O19        10.4870   -2.6660    1.3810 o         1 MOL     -0.621975
    130 C41         8.4440   -4.6110    0.0530 c3        1 MOL      0.309269
    131 C42         9.0050   -4.7950   -1.3420 c3        1 MOL     -0.148429
    132 O20         7.0960   -5.1560    0.0740 oh        1 MOL     -0.623853
    133 H60         7.3810   -2.2900   -1.1700 hn        1 MOL      0.331468
    134 H61         8.0090   -3.1830    1.5620 h1        1 MOL      0.117784
    135 H62         8.9940   -5.1590    0.8100 h1        1 MOL     -0.000104
    136 H63         6.7530   -5.1830    0.9650 ho        1 MOL      0.406702
    137 H64         8.4600   -4.2370   -2.1140 hc        1 MOL      0.050461
    138 H65        10.0620   -4.5480   -1.3780 hc        1 MOL      0.050461
    139 H66         8.9320   -5.8560   -1.5750 hc        1 MOL      0.050461
    140 N12         9.9000   -1.4980   -0.3400 n         1 MOL     -0.475637
    141 C43        11.2180   -0.8020   -0.3880 c3        1 MOL     -0.069822
    142 C44        11.0340    0.4790   -1.1390 c         1 MOL      0.610800
    143 O21        10.5640    0.4070   -2.2610 o         1 MOL     -0.511850
    144 C45        12.2860   -1.7890   -0.9440 c3        1 MOL      0.017053
    145 C46        13.7490   -1.2540   -0.9770 c3        1 MOL      0.051456
    146 C47        14.7170   -2.4560   -1.2480 c3        1 MOL     -0.029053
    147 C48        16.0410   -1.7570   -1.7190 c3        1 MOL      0.125638
    148 N13        17.0370   -2.7610   -2.0810 n4        1 MOL     -0.373090
    149 H67         9.2080   -1.1700   -1.0020 hn        1 MOL      0.261065
    150 H68        11.5780   -0.5490    0.6070 h1        1 MOL      0.109962
    151 H69        12.0220   -1.9820   -1.9820 hc        1 MOL      0.004995
    152 H70        12.2740   -2.7290   -0.3820 hc        1 MOL      0.004995
    153 H71        14.0310   -0.8230   -0.0160 hc        1 MOL      0.003430
    154 H72        13.8470   -0.4710   -1.7270 hc        1 MOL      0.003430
    155 H73        14.4680   -3.1140   -2.0730 hc        1 MOL      0.029582
    156 H74        14.9090   -3.1000   -0.3950 hc        1 MOL      0.029582
    157 H75        16.5140   -1.0300   -1.0480 hx        1 MOL      0.060210
    158 H76        15.7450   -1.1590   -2.5830 hx        1 MOL      0.060210
    159 H77        16.7340   -3.6770   -1.7840 hn        1 MOL      0.293346
    160 H78        17.1460   -2.7200   -3.0780 hn        1 MOL      0.293346
    161 H79        17.9250   -2.5780   -1.6310 hn        1 MOL      0.293346
    162 N14        11.4820    1.6060   -0.6060 n         1 MOL     -0.421657
    163 C49        11.2420    2.8140   -1.3610 c3        1 MOL      0.126484
    164 C50         9.7660    3.2650   -1.3100 c         1 MOL      0.343102
    165 O22         9.1890    3.3830   -2.3780 o         1 MOL     -0.499947
    166 C51        12.1500    3.9590   -1.0140 c3        1 MOL     -0.005418
    167 C52        13.6370    3.5010   -1.3180 c3        1 MOL     -0.112548
    168 C53        14.6090    4.1900   -0.3480 c         1 MOL      0.608234
    169 O23        15.4840    5.0270   -0.7690 o         1 MOL     -0.661369
    170 O24        14.4040    3.9840    0.8820 o         1 MOL     -0.661369
    171 H80        12.0170    1.6610    0.2470 hn        1 MOL      0.251330
    172 H81        11.4080    2.6700   -2.4220 h1        1 MOL      0.051236
    173 H82        12.1240    4.3790   -0.0070 hc        1 MOL      0.062471
    174 H83        11.9600    4.8060   -1.6850 hc        1 MOL      0.062471
    175 H84        13.8800    3.8090   -2.3400 hc        1 MOL     -0.008442
    176 H85        13.7840    2.4260   -1.2350 hc        1 MOL     -0.008442
    177 N15         9.0690    3.3270   -0.1510 n         1 MOL     -0.345463
    178 C54         9.5500    3.4470    1.2360 c3        1 MOL     -0.051609
    179 H86         9.0070    4.2460    1.7400 h1        1 MOL      0.051142
    180 H87         9.3840    2.5070    1.7610 h1        1 MOL      0.051142
    181 H88        10.6150    3.6780    1.2320 h1        1 MOL      0.051142
    182 H89         8.0790    3.4740   -0.2580 hn        1 MOL      0.283424
    183 Ca1        -8.0810    2.6770   -2.7320 Ca        1 MOL      1.796659
    184 O25       -10.0210    4.5270   -2.6210 oh        1 MOL     -0.861746
    185 H90       -10.6870    4.3440   -1.9670 ho        1 MOL      0.428270
    186 H91       -10.2120    5.4200   -2.9200 ho        1 MOL      0.428270
    187 O26        -5.7370    3.4370   -3.8330 oh        1 MOL     -0.861746
    188 H92        -4.9610    2.8980   -3.9130 ho        1 MOL      0.428270
    189 H93        -5.4730    4.2940   -4.1700 ho        1 MOL      0.428270
    190 O27        -7.3340    0.8400   -4.5950 oh        1 MOL     -0.861746
    191 H94        -7.5440    0.9040   -5.5250 ho        1 MOL      0.428270
    192 H95        -7.1000   -0.0790   -4.4650 ho        1 MOL      0.428270
    193 O28       -10.4630    1.2230   -3.8790 oh        1 MOL     -0.861746
    194 H96       -10.0140    0.5130   -3.4050 ho        1 MOL      0.428270
    195 H97       -11.3480    1.2140   -3.5270 ho        1 MOL      0.428270
    196 O29        -6.5050    0.8970   -1.4100 oh        1 MOL     -0.861746
    197 H98        -5.8320    1.1510   -0.7800 ho        1 MOL      0.428270
    198 H99        -6.5360   -0.0570   -1.3540 ho        1 MOL      0.428270
    199 O30        -8.6600    3.9040   -5.1510 oh        1 MOL     -0.861746
    200 H100       -8.2030    3.6980   -5.9620 ho        1 MOL      0.428270
    201 H101       -9.1370    4.7210   -5.3430 ho        1 MOL      0.428270
@<TRIPOS>BOND
     1    1    2 1   
     2    1    4 1   
     3    1    5 1   
     4    1    6 1   
     5    2    3 2   
     6    2    7 1   
     7    7    8 1   
     8    7   15 1   
     9    8    9 1   
    10    8   11 1   
    11    8   16 1   
    12    9   10 2   
    13    9   19 1   
    14   11   12 1   
    15   11   17 1   
    16   11   18 1   
    17   12   13 1   
    18   12   14 1   
    19   19   20 1   
    20   19   28 1   
    21   20   21 1   
    22   20   23 1   
    23   20   29 1   
    24   21   22 2   
    25   21   41 1   
    26   23   24 1   
    27   23   30 1   
    28   23   31 1   
    29   24   25 1   
    30   24   32 1   
    31   24   33 1   
    32   25   26 1   
    33   25   34 1   
    34   25   35 1   
    35   26   27 1   
    36   26   36 1   
    37   26   37 1   
    38   27   38 1   
    39   27   39 1   
    40   27   40 1   
    41   41   42 1   
    42   41   49 1   
    43   42   43 1   
    44   42   45 1   
    45   42   50 1   
    46   43   44 2   
    47   43   53 1   
    48   45   46 1   
    49   45   51 1   
    50   45   52 1   
    51   46   47 1   
    52   46   48 1   
    53   53   54 1   
    54   53   57 1   
    55   54   55 1   
    56   54   58 1   
    57   54   59 1   
    58   55   56 2   
    59   55   60 1   
    60   60   61 1   
    61   60   68 1   
    62   61   62 1   
    63   61   64 1   
    64   61   69 1   
    65   62   63 2   
    66   62   72 1   
    67   64   65 1   
    68   64   70 1   
    69   64   71 1   
    70   65   66 1   
    71   65   67 1   
    72   72   73 1   
    73   72   76 1   
    74   73   74 1   
    75   73   77 1   
    76   73   78 1   
    77   74   75 2   
    78   74   79 1   
    79   79   80 1   
    80   79   86 1   
    81   80   81 1   
    82   80   83 1   
    83   80   87 1   
    84   81   82 2   
    85   81   93 1   
    86   83   84 1   
    87   83   85 1   
    88   83   88 1   
    89   84   90 1   
    90   84   91 1   
    91   84   92 1   
    92   85   89 1   
    93   93   94 1   
    94   93  101 1   
    95   94   95 1   
    96   94   97 1   
    97   94  102 1   
    98   95   96 2   
    99   95  112 1   
   100   97   98 1   
   101   97   99 1   
   102   97  103 1   
   103   98  100 1   
   104   98  104 1   
   105   98  105 1   
   106   99  106 1   
   107   99  107 1   
   108   99  108 1   
   109  100  109 1   
   110  100  110 1   
   111  100  111 1   
   112  112  113 1   
   113  112  119 1   
   114  113  114 1   
   115  113  116 1   
   116  113  120 1   
   117  114  115 2   
   118  114  126 1   
   119  116  117 1   
   120  116  118 1   
   121  116  121 1   
   122  117  123 1   
   123  117  124 1   
   124  117  125 1   
   125  118  122 1   
   126  126  127 1   
   127  126  133 1   
   128  127  128 1   
   129  127  130 1   
   130  127  134 1   
   131  128  129 2   
   132  128  140 1   
   133  130  131 1   
   134  130  132 1   
   135  130  135 1   
   136  131  137 1   
   137  131  138 1   
   138  131  139 1   
   139  132  136 1   
   140  140  141 1   
   141  140  149 1   
   142  141  142 1   
   143  141  144 1   
   144  141  150 1   
   145  142  143 2   
   146  142  162 1   
   147  144  145 1   
   148  144  151 1   
   149  144  152 1   
   150  145  146 1   
   151  145  153 1   
   152  145  154 1   
   153  146  147 1   
   154  146  155 1   
   155  146  156 1   
   156  147  148 1   
   157  147  157 1   
   158  147  158 1   
   159  148  159 1   
   160  148  160 1   
   161  148  161 1   
   162  162  163 1   
   163  162  171 1   
   164  163  164 1   
   165  163  166 1   
   166  163  172 1   
   167  164  165 2   
   168  164  177 1   
   169  166  167 1   
   170  166  173 1   
   171  166  174 1   
   172  167  168 1   
   173  167  175 1   
   174  167  176 1   
   175  168  169 1   
   176  168  170 1   
   177  177  178 1   
   178  177  182 1   
   179  178  179 1   
   180  178  180 1   
   181  178  181 1   
   182  184  185 1   
   183  184  186 1   
   184  187  188 1   
   185  187  189 1   
   186  190  191 1   
   187  190  192 1   
   188  193  194 1   
   189  193  195 1   
   190  196  197 1   
   191  196  198 1   
   192  199  200 1   
   193  199  201 1   
@<TRIPOS>SUBSTRUCTURE
     1 MOL         1 TEMP              0 ****  ****    0 ROOT
