@<TRIPOS>MOLECULE
MOL
  181   177     1     0     0
SMALL
resp


@<TRIPOS>ATOM
      1 C1          6.1940    2.4270    5.8960 c3        1 MOL     -0.444092
      2 C2          5.5420    1.6720    4.7540 c         1 MOL      0.683520
      3 O1          4.3280    1.5160    4.6360 o         1 MOL     -0.564637
      4 H1          7.2540    2.1750    5.9380 hc        1 MOL      0.104660
      5 H2          6.0830    3.4990    5.7340 hc        1 MOL      0.104660
      6 H3          5.7170    2.1490    6.8360 hc        1 MOL      0.104660
      7 N1          6.3530    1.0810    3.8530 n         1 MOL     -0.312474
      8 C3          7.6950    1.4710    3.4730 c3        1 MOL     -0.108185
      9 C4          8.5160    0.1650    3.1630 c         1 MOL      0.524257
     10 O2          8.2120   -0.8760    3.8280 o         1 MOL     -0.482593
     11 C5          7.6860    2.4820    2.3560 c3        1 MOL     -0.137961
     12 C6          6.9220    2.1140    1.1500 c         1 MOL      0.878452
     13 O3          5.8840    2.7430    0.8960 o         1 MOL     -0.824588
     14 O4          7.2490    1.1620    0.4280 o         1 MOL     -0.824588
     15 H4          5.9580    0.3560    3.2840 hn        1 MOL      0.242876
     16 H5          8.2750    1.8310    4.3130 h1        1 MOL      0.087304
     17 H6          8.6500    2.7790    1.9470 hc        1 MOL      0.019656
     18 H7          7.3230    3.4850    2.5590 hc        1 MOL      0.019656
     19 N2          9.5960    0.2540    2.3550 n         1 MOL     -0.624317
     20 C7         10.2710   -0.8970    1.7160 c3        1 MOL      0.380917
     21 C8          9.3240   -1.9320    0.9660 c         1 MOL      0.290896
     22 O5          9.7790   -3.0560    0.8230 o         1 MOL     -0.522999
     23 C9         11.3750   -1.4510    2.6480 c3        1 MOL     -0.355244
     24 H8          9.8270    1.1600    1.9740 hn        1 MOL      0.339430
     25 H9         10.8180   -0.3720    0.9240 h1        1 MOL     -0.013274
     26 H10        12.1480   -0.7020    2.8370 hc        1 MOL      0.092800
     27 H11        10.9090   -1.8000    3.5760 hc        1 MOL      0.092800
     28 H12        11.8890   -2.3280    2.2390 hc        1 MOL      0.092800
     29 N3          8.0940   -1.5900    0.5610 n         1 MOL     -0.164618
     30 C10         7.0650   -2.4700   -0.0590 c3        1 MOL      0.243613
     31 C11         6.6520   -2.0080   -1.4770 c         1 MOL      0.222959
     32 O6          6.6700   -0.7920   -1.8370 o         1 MOL     -0.483150
     33 C12         5.8380   -2.7140    0.8260 c3        1 MOL      0.004307
     34 C13         5.3340   -1.3870    1.4070 c         1 MOL      0.629190
     35 O7          5.3410   -1.1680    2.6240 o         1 MOL     -0.622885
     36 O8          4.8680   -0.4940    0.5940 o         1 MOL     -0.622885
     37 H13         7.7800   -0.6400    0.7240 hn        1 MOL      0.146438
     38 H14         7.5150   -3.4420   -0.2540 h1        1 MOL     -0.013925
     39 H15         6.0210   -3.4560    1.5940 hc        1 MOL     -0.014027
     40 H16         5.0790   -3.0480    0.1100 hc        1 MOL     -0.014027
     41 N4          6.4400   -2.9870   -2.3560 n         1 MOL     -0.261216
     42 C14         5.7790   -2.8550   -3.7220 c3        1 MOL     -0.291801
     43 C15         4.2270   -2.5800   -3.7480 c         1 MOL      0.539514
     44 O9          3.7090   -2.1500   -4.7920 o         1 MOL     -0.522267
     45 H17         6.4600   -3.9370   -2.0310 hn        1 MOL      0.254676
     46 H18         5.9770   -3.8160   -4.2020 h1        1 MOL      0.146391
     47 H19         6.3330   -2.1420   -4.3280 h1        1 MOL      0.146391
     48 N5          3.5710   -2.8820   -2.6360 n         1 MOL     -0.421899
     49 C16         2.1950   -2.3900   -2.4100 c3        1 MOL     -0.095816
     50 C17         2.1440   -0.8290   -2.2440 c         1 MOL      0.834081
     51 O10         3.0520   -0.3390   -1.5440 o         1 MOL     -0.655596
     52 C18         1.5750   -3.2100   -1.3000 c3        1 MOL     -0.073722
     53 C19         1.1750   -4.6670   -1.6670 c         1 MOL      0.631569
     54 N6          1.0700   -5.4530   -0.6310 n         1 MOL     -0.801767
     55 O11         1.0820   -5.0760   -2.8280 o         1 MOL     -0.534773
     56 H20         4.0390   -3.5280   -2.0170 hn        1 MOL      0.324957
     57 H21         1.5750   -2.5200   -3.2830 h1        1 MOL      0.103767
     58 H22         0.6600   -2.6610   -1.0560 hc        1 MOL      0.010614
     59 H23         2.2370   -3.2670   -0.4360 hc        1 MOL      0.010614
     60 H24         1.1790   -5.0710    0.2910 hn        1 MOL      0.384057
     61 H25         0.9650   -6.4480   -0.7720 hn        1 MOL      0.384057
     62 N7          1.2000   -0.1280   -2.8720 n         1 MOL     -0.740340
     63 C20         0.9110    1.2830   -2.6880 c3        1 MOL      0.512713
     64 C21         0.3730    2.1010   -3.8880 c         1 MOL      0.356319
     65 O12         0.4260    1.5850   -5.0320 o         1 MOL     -0.524509
     66 H26         0.3940   -0.6520   -3.1730 hn        1 MOL      0.367133
     67 H27         1.7050    1.7990   -2.1460 h1        1 MOL     -0.031251
     68 H28         0.1430    1.3930   -1.9200 h1        1 MOL     -0.031251
     69 N8         -0.1990    3.3040   -3.7630 n         1 MOL     -0.452936
     70 C22        -0.3570    4.0720   -2.4310 c3        1 MOL      0.042563
     71 C23        -1.4440    3.4330   -1.6140 c         1 MOL      0.399750
     72 O13        -2.3720    2.7640   -2.1400 o         1 MOL     -0.487621
     73 C24        -0.7950    5.5180   -2.7840 c3        1 MOL      0.401403
     74 C25        -0.7310    6.5130   -1.5810 c3        1 MOL     -0.232982
     75 O14        -0.1490    6.0820   -3.8400 oh        1 MOL     -0.633970
     76 H29        -0.4550    3.7030   -4.6540 hn        1 MOL      0.316329
     77 H30         0.6370    4.0190   -1.9750 h1        1 MOL      0.021419
     78 H31        -1.8490    5.4620   -3.0270 h1        1 MOL     -0.003969
     79 H32        -0.5830    6.9320   -3.9430 ho        1 MOL      0.393289
     80 H33         0.3220    6.7290   -1.3910 hc        1 MOL      0.052480
     81 H34        -1.1030    7.4940   -1.8780 hc        1 MOL      0.052480
     82 H35        -1.3470    6.1670   -0.7600 hc        1 MOL      0.052480
     83 N9         -1.3640    3.5550   -0.2770 n         1 MOL     -0.330887
     84 C26        -2.3210    2.8770    0.6380 c3        1 MOL     -0.038880
     85 C27        -3.0710    3.8930    1.4710 c         1 MOL      0.656773
     86 O15        -2.4440    4.3910    2.4080 o         1 MOL     -0.591511
     87 C28        -1.5940    1.8130    1.5380 c3        1 MOL      0.145758
     88 C29        -0.6470    0.8570    0.7300 c3        1 MOL     -0.063647
     89 C30        -2.6860    0.9670    2.3090 c3        1 MOL     -0.201253
     90 C31        -1.3620   -0.1540   -0.1360 c3        1 MOL     -0.340198
     91 H36        -0.5830    4.0730    0.1050 hn        1 MOL      0.216378
     92 H37        -3.0390    2.2930    0.0560 h1        1 MOL      0.080828
     93 H38        -0.9830    2.2690    2.3260 hc        1 MOL     -0.008628
     94 H39        -0.1230    0.3240    1.5260 hc        1 MOL      0.019376
     95 H40         0.1190    1.4140    0.1910 hc        1 MOL      0.019376
     96 H41        -2.1870    0.1020    2.7610 hc        1 MOL      0.062094
     97 H42        -3.1500    1.5830    3.0810 hc        1 MOL      0.062094
     98 H43        -3.4980    0.6420    1.6550 hc        1 MOL      0.062094
     99 H44        -0.6700   -0.6570   -0.8160 hc        1 MOL      0.112131
    100 H45        -1.8040   -0.9310    0.4880 hc        1 MOL      0.112131
    101 H46        -2.1960    0.2780   -0.6930 hc        1 MOL      0.112131
    102 N10        -4.3410    4.3430    1.1750 n         1 MOL     -0.584074
    103 C32        -5.2670    3.8300    0.1560 c3        1 MOL      0.209713
    104 C33        -5.8940    2.4760    0.6840 c         1 MOL      0.621070
    105 O16        -5.6260    1.9720    1.7760 o         1 MOL     -0.537855
    106 C34        -6.2760    4.9280   -0.1070 c3        1 MOL     -0.160554
    107 C35        -6.7770    5.7070    1.1240 c         1 MOL      0.751346
    108 O17        -7.9730    5.6110    1.4050 o         1 MOL     -0.719307
    109 O18        -5.9820    6.5020    1.7510 o         1 MOL     -0.719307
    110 H47        -4.7210    4.9650    1.8650 hn        1 MOL      0.293729
    111 H48        -4.7630    3.5680   -0.7730 h1        1 MOL      0.024952
    112 H49        -7.0780    4.5180   -0.7100 hc        1 MOL     -0.004016
    113 H50        -5.7640    5.6280   -0.7610 hc        1 MOL     -0.004016
    114 N11        -6.7750    1.9180   -0.2050 n         1 MOL     -0.746621
    115 C36        -7.4600    0.7080    0.1520 c3        1 MOL      0.377704
    116 C37        -7.6770   -0.1300   -1.1100 c         1 MOL      0.393032
    117 O19        -7.9670    0.4930   -2.1130 o         1 MOL     -0.547963
    118 C38        -8.8770    1.0180    0.8220 c3        1 MOL     -0.222049
    119 C39        -9.4890   -0.2300    1.3580 ca        1 MOL      0.107369
    120 C40       -10.5120   -0.8170    0.5930 ca        1 MOL     -0.195552
    121 C41        -9.0520   -0.8040    2.5670 ca        1 MOL     -0.195552
    122 C42       -11.0920   -2.0660    0.9280 ca        1 MOL     -0.083808
    123 C43        -9.5760   -2.0970    2.9220 ca        1 MOL     -0.083808
    124 C44       -10.6380   -2.7090    2.1180 ca        1 MOL     -0.187577
    125 H51        -6.9990    2.3920   -1.0680 hn        1 MOL      0.369657
    126 H52        -6.8510    0.0860    0.8170 h1        1 MOL      0.025522
    127 H53        -9.6640    1.3730    0.1560 hc        1 MOL      0.088696
    128 H54        -8.7840    1.7750    1.6080 hc        1 MOL      0.088696
    129 H55       -10.8030   -0.3760   -0.3470 ha        1 MOL      0.138306
    130 H56        -8.2560   -0.3240    3.1100 ha        1 MOL      0.138306
    131 H57       -11.9010   -2.4480    0.3240 ha        1 MOL      0.103922
    132 H58        -9.1940   -2.4980    3.8490 ha        1 MOL      0.103922
    133 H59       -11.1800   -3.6110    2.3960 ha        1 MOL      0.116554
    134 N12        -7.4940   -1.4710   -1.0120 n         1 MOL     -0.170918
    135 C45        -7.0150   -2.2690    0.0990 c3        1 MOL      0.421748
    136 C46        -5.4680   -2.1190    0.3080 c         1 MOL      0.137334
    137 O20        -4.8480   -1.1020   -0.0340 o         1 MOL     -0.481793
    138 C47        -7.3490   -3.7520   -0.2580 c3        1 MOL      0.325357
    139 C48        -8.4350   -3.6420   -1.3840 c3        1 MOL     -0.186102
    140 C49        -7.9340   -2.3600   -2.1270 c3        1 MOL     -0.076017
    141 H60        -7.5780   -1.9280    0.9780 h1        1 MOL     -0.144159
    142 H61        -6.4820   -4.3430   -0.5110 hc        1 MOL     -0.116304
    143 H62        -7.7100   -4.1610    0.6880 hc        1 MOL     -0.116304
    144 H63        -8.3840   -4.5130   -2.0310 hc        1 MOL      0.037651
    145 H64        -9.4410   -3.4520   -0.9910 hc        1 MOL      0.037651
    146 H65        -7.1240   -2.6190   -2.8040 h1        1 MOL      0.083418
    147 H66        -8.7410   -1.9810   -2.7540 h1        1 MOL      0.083418
    148 N13        -4.7950   -3.1280    0.8780 n         1 MOL      0.003974
    149 C50        -3.4070   -3.1200    1.3440 c3        1 MOL      0.125907
    150 C51        -3.1690   -3.9000    2.6710 c         1 MOL      0.367982
    151 O21        -2.2670   -4.7200    2.7620 o         1 MOL     -0.513092
    152 C52        -2.4920   -3.5240    0.1870 c3        1 MOL      0.016988
    153 C53        -2.6520   -4.9620   -0.3060 c3        1 MOL     -0.316795
    154 C54        -3.9380   -5.2240   -1.1200 c         1 MOL      0.846019
    155 O22        -4.6150   -6.2200   -0.7870 o         1 MOL     -0.757328
    156 O23        -4.1720   -4.5640   -2.1250 o         1 MOL     -0.757328
    157 H67        -5.4080   -3.8730    1.1860 hn        1 MOL      0.126045
    158 H68        -3.2560   -2.0460    1.5120 h1        1 MOL      0.029885
    159 H69        -1.4580   -3.3630    0.4690 hc        1 MOL      0.016552
    160 H70        -2.6450   -2.7900   -0.6120 hc        1 MOL      0.016552
    161 H71        -2.5620   -5.7060    0.4840 hc        1 MOL      0.046409
    162 H72        -1.8150   -5.2350   -0.9530 hc        1 MOL      0.046409
    163 N14        -3.9560   -3.7110    3.7580 n         1 MOL     -0.394527
    164 C55        -5.0930   -2.7880    4.0410 c3        1 MOL     -0.074146
    165 H73        -6.0340   -3.3290    3.9380 h1        1 MOL      0.067465
    166 H74        -5.0060   -2.4050    5.0590 h1        1 MOL      0.067465
    167 H75        -5.0720   -1.9570    3.3360 h1        1 MOL      0.067465
    168 H76        -3.8000   -4.4750    4.3970 hn        1 MOL      0.280684
    169 Ca1         5.1140    1.2520   -1.1510 Ca        1 MOL      1.723466
    170 O24         4.9950    0.9440   -4.0250 oh        1 MOL     -0.820322
    171 H77         5.8410    0.8790   -4.4750 ho        1 MOL      0.408365
    172 H78         4.3490    0.9850   -4.7400 ho        1 MOL      0.408365
    173 O25         3.8690    3.2860   -2.4640 oh        1 MOL     -0.820322
    174 H79         3.3950    3.9700   -1.9730 ho        1 MOL      0.408365
    175 H80         4.2660    3.7510   -3.2020 ho        1 MOL      0.408365
    176 O26         7.1200    2.6140   -2.5440 oh        1 MOL     -0.820322
    177 H81         7.0970    3.1340   -3.3430 ho        1 MOL      0.408365
    178 H82         7.8700    2.0370   -2.6540 ho        1 MOL      0.408365
    179 O27         2.8550    2.1700    0.0210 oh        1 MOL     -0.820322
    180 H83         2.4740    3.0490   -0.0240 ho        1 MOL      0.408365
    181 H84         2.9900    2.0170    0.9600 ho        1 MOL      0.408365
@<TRIPOS>BOND
     1    1    2 1   
     2    1    4 1   
     3    1    5 1   
     4    1    6 1   
     5    2    3 2   
     6    2    7 1   
     7    7    8 1   
     8    7   15 1   
     9    8    9 1   
    10    8   11 1   
    11    8   16 1   
    12    9   10 2   
    13    9   19 1   
    14   11   12 1   
    15   11   17 1   
    16   11   18 1   
    17   12   13 1   
    18   12   14 1   
    19   19   20 1   
    20   19   24 1   
    21   20   21 1   
    22   20   23 1   
    23   20   25 1   
    24   21   22 2   
    25   21   29 1   
    26   23   26 1   
    27   23   27 1   
    28   23   28 1   
    29   29   30 1   
    30   29   37 1   
    31   30   31 1   
    32   30   33 1   
    33   30   38 1   
    34   31   32 2   
    35   31   41 1   
    36   33   34 1   
    37   33   39 1   
    38   33   40 1   
    39   34   35 1   
    40   34   36 1   
    41   41   42 1   
    42   41   45 1   
    43   42   43 1   
    44   42   46 1   
    45   42   47 1   
    46   43   44 2   
    47   43   48 1   
    48   48   49 1   
    49   48   56 1   
    50   49   50 1   
    51   49   52 1   
    52   49   57 1   
    53   50   51 2   
    54   50   62 1   
    55   52   53 1   
    56   52   58 1   
    57   52   59 1   
    58   53   54 1   
    59   53   55 2   
    60   54   60 1   
    61   54   61 1   
    62   62   63 1   
    63   62   66 1   
    64   63   64 1   
    65   63   67 1   
    66   63   68 1   
    67   64   65 2   
    68   64   69 1   
    69   69   70 1   
    70   69   76 1   
    71   70   71 1   
    72   70   73 1   
    73   70   77 1   
    74   71   72 2   
    75   71   83 1   
    76   73   74 1   
    77   73   75 1   
    78   73   78 1   
    79   74   80 1   
    80   74   81 1   
    81   74   82 1   
    82   75   79 1   
    83   83   84 1   
    84   83   91 1   
    85   84   85 1   
    86   84   87 1   
    87   84   92 1   
    88   85   86 2   
    89   85  102 1   
    90   87   88 1   
    91   87   89 1   
    92   87   93 1   
    93   88   90 1   
    94   88   94 1   
    95   88   95 1   
    96   89   96 1   
    97   89   97 1   
    98   89   98 1   
    99   90   99 1   
   100   90  100 1   
   101   90  101 1   
   102  102  103 1   
   103  102  110 1   
   104  103  104 1   
   105  103  106 1   
   106  103  111 1   
   107  104  105 2   
   108  104  114 1   
   109  106  107 1   
   110  106  112 1   
   111  106  113 1   
   112  107  108 1   
   113  107  109 1   
   114  114  115 1   
   115  114  125 1   
   116  115  116 1   
   117  115  118 1   
   118  115  126 1   
   119  116  117 2   
   120  116  134 1   
   121  118  119 1   
   122  118  127 1   
   123  118  128 1   
   124  119  120 ar  
   125  119  121 ar  
   126  120  122 ar  
   127  120  129 1   
   128  121  123 ar  
   129  121  130 1   
   130  122  124 ar  
   131  122  131 1   
   132  123  124 ar  
   133  123  132 1   
   134  124  133 1   
   135  134  135 1   
   136  134  140 1   
   137  135  136 1   
   138  135  138 1   
   139  135  141 1   
   140  136  137 2   
   141  136  148 1   
   142  138  139 1   
   143  138  142 1   
   144  138  143 1   
   145  139  140 1   
   146  139  144 1   
   147  139  145 1   
   148  140  146 1   
   149  140  147 1   
   150  148  149 1   
   151  148  157 1   
   152  149  150 1   
   153  149  152 1   
   154  149  158 1   
   155  150  151 2   
   156  150  163 1   
   157  152  153 1   
   158  152  159 1   
   159  152  160 1   
   160  153  154 1   
   161  153  161 1   
   162  153  162 1   
   163  154  155 1   
   164  154  156 1   
   165  163  164 1   
   166  163  168 1   
   167  164  165 1   
   168  164  166 1   
   169  164  167 1   
   170  170  171 1   
   171  170  172 1   
   172  173  174 1   
   173  173  175 1   
   174  176  177 1   
   175  176  178 1   
   176  179  180 1   
   177  179  181 1   
@<TRIPOS>SUBSTRUCTURE
     1 MOL         1 TEMP              0 ****  ****    0 ROOT
