@<TRIPOS>MOLECULE
MOL
  181   177     1     0     0
SMALL
resp


@<TRIPOS>ATOM
      1 C1          2.0880   -1.6290    4.9830 c3        1 MOL     -0.445312
      2 C2          3.1970   -0.9650    4.1160 c         1 MOL      0.733678
      3 O1          3.0780   -0.0850    3.2330 o         1 MOL     -0.546613
      4 H1          1.9580   -1.0610    5.9040 hc        1 MOL      0.113400
      5 H2          1.1500   -1.6390    4.4280 hc        1 MOL      0.113400
      6 H3          2.3800   -2.6510    5.2250 hc        1 MOL      0.113400
      7 N1          4.4160   -1.5610    4.2620 n         1 MOL     -0.681163
      8 C3          5.5760   -0.9410    3.5570 c3        1 MOL      0.301698
      9 C4          6.0460   -1.6250    2.2220 c         1 MOL      0.267646
     10 O2          6.5980   -1.0750    1.2120 o         1 MOL     -0.400373
     11 C5          6.7700   -0.8480    4.5270 c3        1 MOL     -0.016822
     12 C6          7.9560   -0.0530    4.0330 c         1 MOL      0.633372
     13 O3          9.0240   -0.6560    3.9400 o         1 MOL     -0.689022
     14 O4          7.8750    1.0980    3.5850 o         1 MOL     -0.689022
     15 H4          4.4990   -2.4720    4.6740 hn        1 MOL      0.311402
     16 H5          5.3940    0.1330    3.4590 h1        1 MOL      0.026793
     17 H6          7.1510   -1.8560    4.7310 hc        1 MOL     -0.051790
     18 H7          6.4240   -0.4030    5.4630 hc        1 MOL     -0.051790
     19 N2          5.8230   -2.9000    2.1390 n         1 MOL     -0.402759
     20 C7          6.1770   -3.8580    1.1370 c3        1 MOL      0.558509
     21 C8          6.2960   -3.3320   -0.3490 c         1 MOL      0.343196
     22 O5          7.4190   -3.3550   -0.9490 o         1 MOL     -0.539303
     23 C9          7.4450   -4.6420    1.6240 c3        1 MOL     -0.324911
     24 H8          5.5780   -3.2890    3.0370 hn        1 MOL      0.213080
     25 H9          5.3770   -4.5950    1.1770 h1        1 MOL     -0.075003
     26 H10         8.3860   -4.1060    1.5750 hc        1 MOL      0.070367
     27 H11         7.2400   -5.0140    2.6260 hc        1 MOL      0.070367
     28 H12         7.5490   -5.5230    0.9870 hc        1 MOL      0.070367
     29 N3          5.2520   -2.7590   -0.8610 n         1 MOL     -0.266664
     30 C10         5.1280   -2.3950   -2.3190 c3        1 MOL      0.002160
     31 C11         6.0450   -1.2910   -2.7810 c         1 MOL      0.411641
     32 O6          6.2510   -1.1240   -3.9880 o         1 MOL     -0.530109
     33 C12         5.0510   -3.6470   -3.1720 c3        1 MOL     -0.054120
     34 C13         4.0810   -4.7030   -2.6400 c         1 MOL      0.526822
     35 O7          2.8330   -4.4220   -2.5110 o         1 MOL     -0.658077
     36 O8          4.5860   -5.8060   -2.3830 o         1 MOL     -0.658077
     37 H13         4.5070   -2.7430   -0.1830 hn        1 MOL      0.189571
     38 H14         4.1050   -2.0170   -2.3270 h1        1 MOL      0.017634
     39 H15         6.0020   -4.1630   -3.3170 hc        1 MOL      0.035639
     40 H16         4.7300   -3.3720   -4.1700 hc        1 MOL      0.035639
     41 N4          6.6410   -0.4870   -1.8220 n         1 MOL      0.039140
     42 C14         7.3310    0.7550   -2.1900 c3        1 MOL     -0.272683
     43 C15         6.4680    2.0280   -2.5660 c         1 MOL      0.571481
     44 O9          6.9100    3.0080   -3.1860 o         1 MOL     -0.568194
     45 H17         6.5020   -0.8710   -0.9080 hn        1 MOL      0.063489
     46 H18         8.0670    0.6800   -2.9920 h1        1 MOL      0.117789
     47 H19         7.8710    1.1320   -1.3300 h1        1 MOL      0.117789
     48 N5          5.1610    1.8930   -2.3270 n         1 MOL     -0.294002
     49 C16         4.1720    2.8530   -2.8040 c3        1 MOL      0.122342
     50 C17         4.0250    4.0490   -1.8980 c         1 MOL      0.505436
     51 O10         4.4660    3.9370   -0.7710 o         1 MOL     -0.482399
     52 C18         2.8350    2.1820   -2.8570 c3        1 MOL     -0.253270
     53 C19         2.7810    1.1980   -3.9060 c         1 MOL      0.536085
     54 N6          2.6360    1.6410   -5.1420 n         1 MOL     -0.731161
     55 O11         2.8610   -0.0070   -3.7210 o         1 MOL     -0.458376
     56 H20         4.8200    1.1720   -1.7010 hn        1 MOL      0.180694
     57 H21         4.5850    3.0790   -3.7800 h1        1 MOL      0.019508
     58 H22         2.0890    2.9490   -3.0730 hc        1 MOL      0.119650
     59 H23         2.6200    1.6340   -1.9360 hc        1 MOL      0.119650
     60 H24         2.4690    2.6140   -5.3390 hn        1 MOL      0.356112
     61 H25         2.8270    0.9030   -5.8100 hn        1 MOL      0.356112
     62 N7          3.4320    5.1400   -2.4320 n         1 MOL     -0.514803
     63 C20         3.0190    6.2840   -1.5960 c3        1 MOL      0.087572
     64 C21         1.5360    6.2990   -1.3130 c         1 MOL      0.542624
     65 O12         0.6950    5.6990   -1.9810 o         1 MOL     -0.518142
     66 H26         3.2290    5.0740   -3.4190 hn        1 MOL      0.274409
     67 H27         3.3360    7.2010   -2.0940 h1        1 MOL      0.055460
     68 H28         3.5910    6.2800   -0.6680 h1        1 MOL      0.055460
     69 N8          1.1880    7.1320   -0.4130 n         1 MOL     -0.370388
     70 C22        -0.1540    7.5360   -0.2000 c3        1 MOL     -0.341799
     71 C23        -1.2360    6.5570    0.3400 c         1 MOL      0.554439
     72 O13        -2.4230    6.9570    0.4370 o         1 MOL     -0.563061
     73 C24        -0.2130    8.7810    0.6890 c3        1 MOL      0.381878
     74 C25         0.2450    8.6310    2.1680 c3        1 MOL     -0.032622
     75 O14         0.4540    9.9080    0.1830 oh        1 MOL     -0.638017
     76 H29         1.9560    7.7280   -0.1190 hn        1 MOL      0.260849
     77 H30        -0.4890    8.0040   -1.1280 h1        1 MOL      0.142276
     78 H31        -1.2530    9.0940    0.8440 h1        1 MOL      0.005781
     79 H32         0.2770   10.0260   -0.7470 ho        1 MOL      0.394641
     80 H33        -0.4100    8.0180    2.7890 hc        1 MOL      0.016265
     81 H34         1.2750    8.2690    2.2220 hc        1 MOL      0.016265
     82 H35         0.2500    9.6150    2.6150 hc        1 MOL      0.016265
     83 N9         -0.8250    5.3660    0.7900 n         1 MOL     -0.246233
     84 C26        -1.7620    4.3240    1.2370 c3        1 MOL     -0.009400
     85 C27        -1.5620    2.9990    0.4770 c         1 MOL      0.504622
     86 O15        -0.5360    2.8440   -0.2030 o         1 MOL     -0.498078
     87 C28        -1.6110    4.0750    2.7390 c3        1 MOL      0.075127
     88 C29        -0.1160    3.6710    3.1310 c3        1 MOL     -0.053094
     89 C30        -2.0890    5.2340    3.6030 c3        1 MOL     -0.299807
     90 C31         0.0750    3.1600    4.5780 c3        1 MOL     -0.165441
     91 H36         0.1360    5.1640    0.5900 hn        1 MOL      0.223904
     92 H37        -2.7870    4.6480    1.1120 h1        1 MOL      0.070283
     93 H38        -2.2350    3.2010    2.9350 hc        1 MOL      0.001466
     94 H39         0.5360    4.5220    2.8960 hc        1 MOL      0.055708
     95 H40         0.0170    2.7910    2.5000 hc        1 MOL      0.055708
     96 H41        -1.5730    6.1270    3.2410 hc        1 MOL      0.074068
     97 H42        -3.1580    5.4450    3.5220 hc        1 MOL      0.074068
     98 H43        -1.8330    5.1150    4.6540 hc        1 MOL      0.074068
     99 H44         0.9430    2.4950    4.6100 hc        1 MOL      0.050303
    100 H45         0.3020    3.9700    5.2680 hc        1 MOL      0.050303
    101 H46        -0.7440    2.5320    4.9130 hc        1 MOL      0.050303
    102 N10        -2.5390    2.0610    0.5950 n         1 MOL     -0.532944
    103 C32        -2.4420    0.7190    0.0110 c3        1 MOL      0.175483
    104 C33        -3.8160    0.0240   -0.1950 c         1 MOL      0.384332
    105 O16        -3.9610   -1.2180   -0.1950 o         1 MOL     -0.427775
    106 C34        -1.4400   -0.1280    0.9260 c3        1 MOL     -0.217007
    107 C35        -0.7790   -1.3030    0.2390 c         1 MOL      0.658934
    108 O17         0.1230   -1.9610    0.8440 o         1 MOL     -0.757998
    109 O18        -1.0940   -1.7180   -0.9500 o         1 MOL     -0.757998
    110 H47        -3.2690    2.2660    1.2640 hn        1 MOL      0.293415
    111 H48        -1.9770    0.7150   -0.9780 h1        1 MOL      0.084743
    112 H49        -1.9670   -0.4300    1.8310 hc        1 MOL      0.092866
    113 H50        -0.5830    0.4740    1.2510 hc        1 MOL      0.092866
    114 N11        -4.7730    0.8770   -0.4580 n         1 MOL     -0.418751
    115 C36        -6.1190    0.4940   -0.8790 c3        1 MOL      0.375439
    116 C37        -6.8290   -0.5840   -0.0040 c         1 MOL      0.352297
    117 O19        -6.9080   -0.3480    1.2030 o         1 MOL     -0.550291
    118 C38        -7.0500    1.6770   -1.1200 c3        1 MOL     -0.259263
    119 C39        -8.4460    1.4320   -1.7180 ca        1 MOL      0.102100
    120 C40        -8.6580    1.7270   -3.0460 ca        1 MOL     -0.113886
    121 C41        -9.4650    0.9170   -0.9280 ca        1 MOL     -0.113886
    122 C42        -9.9580    1.5000   -3.6520 ca        1 MOL     -0.197252
    123 C43       -10.7120    0.6310   -1.5220 ca        1 MOL     -0.197252
    124 C44       -10.9820    0.9490   -2.8160 ca        1 MOL     -0.039717
    125 H51        -4.5760    1.8740   -0.4160 hn        1 MOL      0.229545
    126 H52        -6.0170    0.1120   -1.8910 h1        1 MOL     -0.031478
    127 H53        -6.4790    2.3600   -1.7560 hc        1 MOL      0.070115
    128 H54        -7.1840    2.0420   -0.1100 hc        1 MOL      0.070115
    129 H55        -7.9280    2.1380   -3.7170 ha        1 MOL      0.115343
    130 H56        -9.3050    0.7090    0.1200 ha        1 MOL      0.115343
    131 H57       -10.2800    1.8060   -4.6280 ha        1 MOL      0.126352
    132 H58       -11.4160    0.1140   -0.8840 ha        1 MOL      0.126352
    133 H59       -11.9430    0.7980   -3.2890 ha        1 MOL      0.085338
    134 N12        -7.2900   -1.7250   -0.4500 n         1 MOL      0.044537
    135 C45        -7.9790   -2.7480    0.3960 c3        1 MOL      0.036005
    136 C46        -7.1140   -3.3280    1.4930 c         1 MOL      0.315126
    137 O20        -7.5990   -3.5130    2.5870 o         1 MOL     -0.503156
    138 C47        -8.4110   -3.7880   -0.6440 c3        1 MOL     -0.005213
    139 C48        -8.5630   -3.0330   -2.0060 c3        1 MOL      0.001088
    140 C49        -7.4050   -1.9340   -1.8730 c3        1 MOL     -0.112877
    141 H60        -8.8480   -2.2640    0.8360 h1        1 MOL      0.057774
    142 H61        -7.6200   -4.5200   -0.8030 hc        1 MOL      0.007903
    143 H62        -9.3730   -4.2220   -0.4000 hc        1 MOL      0.007903
    144 H63        -8.3890   -3.6760   -2.8710 hc        1 MOL      0.022972
    145 H64        -9.5340   -2.5830   -2.1640 hc        1 MOL      0.022972
    146 H65        -6.4050   -2.2090   -2.2090 h1        1 MOL      0.028548
    147 H66        -7.7560   -1.0490   -2.4190 h1        1 MOL      0.028548
    148 N13        -5.7900   -3.3550    1.3290 n         1 MOL     -0.169873
    149 C50        -4.7490   -3.6660    2.3460 c3        1 MOL     -0.295206
    150 C51        -4.6860   -2.5390    3.3900 c         1 MOL      0.438138
    151 O21        -4.3550   -2.7790    4.5170 o         1 MOL     -0.548312
    152 C52        -3.3780   -3.8890    1.7390 c3        1 MOL      0.212640
    153 C53        -3.3660   -4.9330    0.6360 c3        1 MOL     -0.286158
    154 C54        -1.9960   -4.9250   -0.0480 c         1 MOL      0.720977
    155 O22        -1.8250   -4.7780   -1.2710 o         1 MOL     -0.721393
    156 O23        -1.0390   -5.0680    0.6850 o         1 MOL     -0.721393
    157 H67        -5.4260   -3.0480    0.4380 hn        1 MOL      0.272240
    158 H68        -4.9940   -4.5400    2.9390 h1        1 MOL      0.161917
    159 H69        -2.6920   -4.2620    2.4960 hc        1 MOL      0.026531
    160 H70        -3.0110   -2.9530    1.3150 hc        1 MOL      0.026531
    161 H71        -4.1300   -4.6970   -0.1060 hc        1 MOL      0.026876
    162 H72        -3.4240   -5.9240    1.0810 hc        1 MOL      0.026876
    163 N14        -5.1140   -1.2820    3.1360 n         1 MOL      0.008448
    164 C55        -5.0970   -0.2080    4.1210 c3        1 MOL     -0.321692
    165 H73        -5.0490   -0.6350    5.1230 h1        1 MOL      0.104972
    166 H74        -4.2250    0.4250    3.9550 h1        1 MOL      0.104972
    167 H75        -6.0040    0.3890    4.0240 h1        1 MOL      0.104972
    168 H76        -5.3950   -0.9970    2.2140 hn        1 MOL      0.101921
    169 Ca1         0.6040   -3.7880   -1.1920 Ca        1 MOL      1.759654
    170 O24        -0.2440   -3.7740   -3.7700 oh        1 MOL     -0.815803
    171 H77        -0.2560   -3.3530   -4.6280 ho        1 MOL      0.398086
    172 H78        -0.8990   -4.4680   -3.8350 ho        1 MOL      0.398086
    173 O25         0.5860   -6.3750   -1.9660 oh        1 MOL     -0.815803
    174 H79         0.3420   -6.7420   -2.8270 ho        1 MOL      0.398086
    175 H80         1.1440   -7.0480   -1.5750 ho        1 MOL      0.398086
    176 O26         1.8680   -1.3130   -1.6570 oh        1 MOL     -0.815803
    177 H81         2.2170   -0.7970   -2.3880 ho        1 MOL      0.398086
    178 H82         1.8830   -0.7140   -0.9140 ho        1 MOL      0.398086
    179 O27         2.3170   -4.8720    0.7370 oh        1 MOL     -0.815803
    180 H83         2.7290   -4.1220    1.1640 ho        1 MOL      0.398086
    181 H84         2.1340   -5.4870    1.4470 ho        1 MOL      0.398086
@<TRIPOS>BOND
     1    1    2 1   
     2    1    4 1   
     3    1    5 1   
     4    1    6 1   
     5    2    3 2   
     6    2    7 1   
     7    7    8 1   
     8    7   15 1   
     9    8    9 1   
    10    8   11 1   
    11    8   16 1   
    12    9   10 2   
    13    9   19 1   
    14   11   12 1   
    15   11   17 1   
    16   11   18 1   
    17   12   13 1   
    18   12   14 1   
    19   19   20 1   
    20   19   24 1   
    21   20   21 1   
    22   20   23 1   
    23   20   25 1   
    24   21   22 2   
    25   21   29 1   
    26   23   26 1   
    27   23   27 1   
    28   23   28 1   
    29   29   30 1   
    30   29   37 1   
    31   30   31 1   
    32   30   33 1   
    33   30   38 1   
    34   31   32 2   
    35   31   41 1   
    36   33   34 1   
    37   33   39 1   
    38   33   40 1   
    39   34   35 1   
    40   34   36 1   
    41   41   42 1   
    42   41   45 1   
    43   42   43 1   
    44   42   46 1   
    45   42   47 1   
    46   43   44 2   
    47   43   48 1   
    48   48   49 1   
    49   48   56 1   
    50   49   50 1   
    51   49   52 1   
    52   49   57 1   
    53   50   51 2   
    54   50   62 1   
    55   52   53 1   
    56   52   58 1   
    57   52   59 1   
    58   53   54 1   
    59   53   55 2   
    60   54   60 1   
    61   54   61 1   
    62   62   63 1   
    63   62   66 1   
    64   63   64 1   
    65   63   67 1   
    66   63   68 1   
    67   64   65 2   
    68   64   69 1   
    69   69   70 1   
    70   69   76 1   
    71   70   71 1   
    72   70   73 1   
    73   70   77 1   
    74   71   72 2   
    75   71   83 1   
    76   73   74 1   
    77   73   75 1   
    78   73   78 1   
    79   74   80 1   
    80   74   81 1   
    81   74   82 1   
    82   75   79 1   
    83   83   84 1   
    84   83   91 1   
    85   84   85 1   
    86   84   87 1   
    87   84   92 1   
    88   85   86 2   
    89   85  102 1   
    90   87   88 1   
    91   87   89 1   
    92   87   93 1   
    93   88   90 1   
    94   88   94 1   
    95   88   95 1   
    96   89   96 1   
    97   89   97 1   
    98   89   98 1   
    99   90   99 1   
   100   90  100 1   
   101   90  101 1   
   102  102  103 1   
   103  102  110 1   
   104  103  104 1   
   105  103  106 1   
   106  103  111 1   
   107  104  105 2   
   108  104  114 1   
   109  106  107 1   
   110  106  112 1   
   111  106  113 1   
   112  107  108 1   
   113  107  109 1   
   114  114  115 1   
   115  114  125 1   
   116  115  116 1   
   117  115  118 1   
   118  115  126 1   
   119  116  117 2   
   120  116  134 1   
   121  118  119 1   
   122  118  127 1   
   123  118  128 1   
   124  119  120 ar  
   125  119  121 ar  
   126  120  122 ar  
   127  120  129 1   
   128  121  123 ar  
   129  121  130 1   
   130  122  124 ar  
   131  122  131 1   
   132  123  124 ar  
   133  123  132 1   
   134  124  133 1   
   135  134  135 1   
   136  134  140 1   
   137  135  136 1   
   138  135  138 1   
   139  135  141 1   
   140  136  137 2   
   141  136  148 1   
   142  138  139 1   
   143  138  142 1   
   144  138  143 1   
   145  139  140 1   
   146  139  144 1   
   147  139  145 1   
   148  140  146 1   
   149  140  147 1   
   150  148  149 1   
   151  148  157 1   
   152  149  150 1   
   153  149  152 1   
   154  149  158 1   
   155  150  151 2   
   156  150  163 1   
   157  152  153 1   
   158  152  159 1   
   159  152  160 1   
   160  153  154 1   
   161  153  161 1   
   162  153  162 1   
   163  154  155 1   
   164  154  156 1   
   165  163  164 1   
   166  163  168 1   
   167  164  165 1   
   168  164  166 1   
   169  164  167 1   
   170  170  171 1   
   171  170  172 1   
   172  173  174 1   
   173  173  175 1   
   174  176  177 1   
   175  176  178 1   
   176  179  180 1   
   177  179  181 1   
@<TRIPOS>SUBSTRUCTURE
     1 MOL         1 TEMP              0 ****  ****    0 ROOT
