@<TRIPOS>MOLECULE
MOL
  192   187     1     0     0
SMALL
resp


@<TRIPOS>ATOM
      1 C1         -6.5930   -4.0150    3.8190 c3        1 MOL     -0.332170
      2 C2         -5.8090   -3.1190    2.8570 c         1 MOL      0.735123
      3 O1         -5.2450   -3.5620    1.8700 o         1 MOL     -0.617600
      4 H1         -6.7980   -3.4670    4.7390 hc        1 MOL      0.084766
      5 H2         -7.5340   -4.3100    3.3550 hc        1 MOL      0.084766
      6 H3         -6.0050   -4.9030    4.0490 hc        1 MOL      0.084766
      7 N1         -5.7620   -1.8090    3.0320 n         1 MOL     -0.471415
      8 C3         -5.0820   -0.9220    2.1190 c3        1 MOL      0.240347
      9 C4         -3.5900   -1.0640    2.0430 c         1 MOL      0.048007
     10 O2         -3.0170   -0.1870    1.3700 o         1 MOL      0.113826
     11 C5         -5.4450    0.4740    2.4600 c3        1 MOL     -0.057516
     12 C6         -6.8940    0.7080    2.6080 c         1 MOL      0.651532
     13 O3         -7.5300    0.4150    3.6570 o         1 MOL     -0.698152
     14 O4         -7.4900    1.3040    1.6060 o         1 MOL     -0.698152
     15 H4         -6.2080   -1.4010    3.8460 hn        1 MOL      0.242887
     16 H5         -5.4290   -1.0580    1.0920 h1        1 MOL      0.058726
     17 H6         -5.1090    1.1440    1.6740 hc        1 MOL     -0.029519
     18 H7         -5.0160    0.8500    3.3840 hc        1 MOL     -0.029519
     19 N2         -2.8560   -2.0390    2.6250 n         1 MOL     -0.425383
     20 C7         -1.3690   -2.0470    2.6200 c3        1 MOL      0.271249
     21 C8         -0.7590   -2.8750    1.5460 c         1 MOL      0.192407
     22 O5         -1.2200   -3.9930    1.2920 o         1 MOL     -0.452177
     23 C9         -0.9050   -2.4620    4.0570 c3        1 MOL     -0.045442
     24 C10        -1.2240   -1.7130    5.2870 c3        1 MOL     -0.143945
     25 C11        -1.0730   -0.1810    5.0980 c3        1 MOL      0.342729
     26 C12        -1.1060    0.3690    6.5030 c3        1 MOL     -0.081214
     27 N3         -1.0710    1.8890    6.5130 n4        1 MOL     -0.299297
     28 H8         -3.2870   -2.9020    2.9200 hn        1 MOL      0.296266
     29 H9         -1.1000   -1.0170    2.3620 h1        1 MOL     -0.258889
     30 H10         0.1800   -2.5420    3.9840 hc        1 MOL      0.057824
     31 H11        -1.2720   -3.4800    4.0950 hc        1 MOL      0.057824
     32 H12        -0.4400   -1.9160    6.0090 hc        1 MOL      0.027413
     33 H13        -2.2360   -1.8230    5.6950 hc        1 MOL      0.027413
     34 H14        -1.9620    0.2360    4.6250 hc        1 MOL     -0.002628
     35 H15        -0.1240    0.0200    4.5900 hc        1 MOL     -0.002628
     36 H16        -0.1830    0.0360    6.9770 hx        1 MOL      0.080761
     37 H17        -1.9710   -0.0280    7.0240 hx        1 MOL      0.080761
     38 H18        -0.9030    2.1580    7.4720 hn        1 MOL      0.308036
     39 H19        -0.3620    2.3120    5.9280 hn        1 MOL      0.308036
     40 H20        -1.9990    2.2320    6.3230 hn        1 MOL      0.308036
     41 N4          0.2670   -2.5170    0.8370 n         1 MOL     -0.032849
     42 C13         0.8660   -1.1190    0.5840 c3        1 MOL     -0.258142
     43 C14         1.1900   -0.2990    1.8270 c         1 MOL      0.683963
     44 O6          0.5230    0.6450    2.2390 o         1 MOL     -0.550526
     45 C15         0.1310   -0.3850   -0.5730 c3        1 MOL     -1.122092
     46 C16        -0.0220   -1.1970   -1.8980 c         1 MOL      0.916572
     47 O7          0.6700   -2.2490   -2.0440 o         1 MOL     -0.757698
     48 O8         -0.7630   -0.7000   -2.7730 o         1 MOL     -0.757698
     49 H21         0.4640   -3.1590    0.0880 hn        1 MOL      0.118564
     50 H22         1.8310   -1.3760    0.1400 h1        1 MOL      0.112004
     51 H23         0.6850    0.5340   -0.7500 hc        1 MOL      0.473589
     52 H24        -0.9000   -0.2060   -0.2540 hc        1 MOL      0.473589
     53 N5          2.3320   -0.6610    2.5330 n         1 MOL     -0.467009
     54 C17         3.3530   -1.6970    2.1010 c3        1 MOL      0.077103
     55 C18         4.3760   -2.2100    3.1750 c         1 MOL      0.469789
     56 O9          4.2780   -1.7560    4.3430 o         1 MOL     -0.549673
     57 H25         2.5320   -0.0950    3.3490 hn        1 MOL      0.290037
     58 H26         3.8890   -1.3530    1.2170 h1        1 MOL      0.065512
     59 H27         2.8010   -2.5740    1.7570 h1        1 MOL      0.065512
     60 N6          5.1690   -3.1720    2.8560 n         1 MOL     -0.468267
     61 C19         5.4380   -3.8400    1.5670 c3        1 MOL      0.320744
     62 C20         6.4370   -2.9960    0.7750 c         1 MOL      0.371031
     63 O10         7.2010   -2.2460    1.3830 o         1 MOL     -0.418136
     64 C21         6.0990   -5.1730    1.7780 c3        1 MOL     -0.226681
     65 C22         7.1870   -5.1000    2.8070 c         1 MOL      0.670463
     66 O11         6.8170   -4.9430    4.0020 o         1 MOL     -0.626580
     67 O12         8.4210   -5.0370    2.5090 o         1 MOL     -0.626580
     68 H28         5.7430   -3.4300    3.6420 hn        1 MOL      0.312968
     69 H29         4.5200   -3.9950    1.0130 h1        1 MOL     -0.061750
     70 H30         6.5310   -5.5050    0.8370 hc        1 MOL      0.025223
     71 H31         5.3290   -5.8830    2.0800 hc        1 MOL      0.025223
     72 N7          6.4320   -3.0640   -0.5630 n         1 MOL     -0.158117
     73 C23         7.2560   -2.2700   -1.4490 c3        1 MOL     -0.394462
     74 C24         6.7290   -0.8860   -1.8830 c         1 MOL      0.548043
     75 O13         7.5380   -0.1200   -2.4090 o         1 MOL     -0.559840
     76 H32         5.9220   -3.8020   -1.0220 hn        1 MOL      0.143815
     77 H33         7.3270   -2.8530   -2.3680 h1        1 MOL      0.183371
     78 H34         8.2510   -2.0840   -1.0350 h1        1 MOL      0.183371
     79 N8          5.4550   -0.5840   -1.7000 n         1 MOL     -0.387535
     80 C25         4.9300    0.7130   -2.0410 c3        1 MOL      0.436149
     81 C26         5.0100    1.5660   -0.8210 c         1 MOL      0.524829
     82 O14         4.5710    1.2400    0.3060 o         1 MOL     -0.519911
     83 C27         3.4220    0.5590   -2.4960 c3        1 MOL     -0.100344
     84 C28         3.3710    0.0350   -3.9380 c3        1 MOL      0.132733
     85 O15         2.8580    1.8530   -2.6090 oh        1 MOL     -0.621657
     86 H35         4.9330   -1.1820   -1.0790 hn        1 MOL      0.099015
     87 H36         5.5680    1.1740   -2.7920 h1        1 MOL      0.021690
     88 H37         2.8440    0.0310   -1.7440 h1        1 MOL      0.154097
     89 H38         2.0070    1.6750   -3.0270 ho        1 MOL      0.468170
     90 H39         4.0080    0.5560   -4.6440 hc        1 MOL     -0.042671
     91 H40         3.8730   -0.9250   -3.7940 hc        1 MOL     -0.042671
     92 H41         2.3740   -0.2080   -4.3260 hc        1 MOL     -0.042671
     93 N9          5.5330    2.8260   -0.9420 n         1 MOL     -0.441003
     94 C29         5.5380    3.8510    0.1730 c3        1 MOL     -0.313179
     95 C30         4.1970    4.5020    0.3680 c         1 MOL      0.507103
     96 O16         4.1270    5.4200    1.1950 o         1 MOL     -0.529470
     97 C31         6.7270    4.8410   -0.0510 c3        1 MOL      0.325634
     98 C32         6.6300    5.6390   -1.4580 c3        1 MOL      0.028087
     99 C33         8.0490    4.1380    0.3220 c3        1 MOL     -0.304511
    100 C34         7.4250    6.9030   -1.4290 c3        1 MOL     -0.310929
    101 H42         5.9480    3.1400   -1.8100 hn        1 MOL      0.231525
    102 H43         5.7970    3.3430    1.0970 h1        1 MOL      0.195575
    103 H44         6.6640    5.6270    0.6940 hc        1 MOL      0.004316
    104 H45         5.6040    5.9850   -1.6190 hc        1 MOL      0.029632
    105 H46         6.9390    5.0890   -2.3490 hc        1 MOL      0.029632
    106 H47         8.1570    3.1430   -0.1030 hc        1 MOL      0.077952
    107 H48         8.8860    4.6290   -0.1730 hc        1 MOL      0.077952
    108 H49         8.2050    4.1580    1.4000 hc        1 MOL      0.077952
    109 H50         8.4780    6.7740   -1.1770 hc        1 MOL      0.073170
    110 H51         7.2830    7.4920   -2.3230 hc        1 MOL      0.073170
    111 H52         6.9490    7.4760   -0.6350 hc        1 MOL      0.073170
    112 N10         3.1400    4.2420   -0.4720 n         1 MOL     -0.277453
    113 C35         1.8120    4.9220   -0.2930 c3        1 MOL     -0.001025
    114 C36         0.6580    3.9070   -0.2380 c         1 MOL      0.516331
    115 O17         0.3710    3.0830   -1.1350 o         1 MOL     -0.508743
    116 C37         1.4990    6.0360   -1.3030 c3        1 MOL      0.240678
    117 C38         1.7100    5.5960   -2.7600 c3        1 MOL     -0.062397
    118 O18         2.2640    7.2150   -1.0220 oh        1 MOL     -0.606232
    119 H53         3.2290    3.5040   -1.1600 hn        1 MOL      0.192805
    120 H54         1.9250    5.3830    0.6860 h1        1 MOL      0.089955
    121 H55         0.4770    6.3880   -1.1900 h1        1 MOL      0.021942
    122 H56         2.0950    7.8550   -1.7230 ho        1 MOL      0.385369
    123 H57         1.3210    6.3320   -3.4560 hc        1 MOL      0.013520
    124 H58         2.7720    5.5350   -3.0060 hc        1 MOL      0.013520
    125 H59         1.2890    4.6270   -3.0370 hc        1 MOL      0.013520
    126 N11        -0.1280    4.0740    0.7920 n         1 MOL     -0.541372
    127 C39        -1.2680    3.1630    0.9280 c3        1 MOL      0.099245
    128 C40        -2.3680    3.4160   -0.0760 c         1 MOL      0.492551
    129 O19        -2.3680    4.5020   -0.6400 o         1 MOL     -0.558600
    130 C41        -1.8790    3.0520    2.3370 c3        1 MOL      0.605417
    131 C42        -2.6180    4.3640    2.7930 c3        1 MOL     -0.426834
    132 O20        -0.8880    2.8330    3.2410 oh        1 MOL     -0.759460
    133 H60         0.1340    4.7250    1.5100 hn        1 MOL      0.323630
    134 H61        -0.9320    2.1520    0.6970 h1        1 MOL      0.029688
    135 H62        -2.4740    2.1360    2.3590 h1        1 MOL     -0.054172
    136 H63        -0.1920    2.2690    2.8950 ho        1 MOL      0.402536
    137 H64        -3.3220    4.5890    1.9900 hc        1 MOL      0.098957
    138 H65        -3.2420    4.0910    3.6420 hc        1 MOL      0.098957
    139 H66        -1.8810    5.1690    2.8780 hc        1 MOL      0.098957
    140 N12        -3.1390    2.3560   -0.3470 n         1 MOL     -0.064656
    141 C43        -4.2120    2.2130   -1.3810 c3        1 MOL     -0.027023
    142 C44        -4.2630    0.8440   -2.1160 c         1 MOL      0.312205
    143 O21        -4.7230    0.7190   -3.3060 o         1 MOL     -0.581849
    144 C45        -5.5630    2.4870   -0.7340 c3        1 MOL      0.100294
    145 C46        -6.4350    3.2020   -1.7350 c3        1 MOL     -0.250693
    146 C47        -7.7860    3.6690   -1.0730 c3        1 MOL      0.438353
    147 C48        -8.6810    4.4280   -2.1030 c3        1 MOL      0.025989
    148 N13       -10.0000    4.7660   -1.5480 n4        1 MOL     -0.309693
    149 H67        -2.9850    1.5890    0.2910 hn        1 MOL     -0.283612
    150 H68        -3.9330    2.8670   -2.2050 h1        1 MOL      0.090497
    151 H69        -5.3420    3.1860    0.0740 hc        1 MOL      0.004925
    152 H70        -6.0350    1.5450   -0.4600 hc        1 MOL      0.004925
    153 H71        -6.7190    2.4410   -2.4550 hc        1 MOL      0.051216
    154 H72        -5.9120    4.0550   -2.1530 hc        1 MOL      0.051216
    155 H73        -7.5810    4.4480   -0.3400 hc        1 MOL     -0.085176
    156 H74        -8.3240    2.8380   -0.6140 hc        1 MOL     -0.085176
    157 H75        -8.7630    3.7460   -2.9560 hx        1 MOL      0.037366
    158 H76        -8.2150    5.3890   -2.3360 hx        1 MOL      0.037366
    159 H77       -10.5700    3.9960   -1.2190 hn        1 MOL      0.308803
    160 H78        -9.8870    5.4290   -0.8050 hn        1 MOL      0.308803
    161 H79       -10.4820    5.2030   -2.3200 hn        1 MOL      0.308803
    162 N14        -3.8770   -0.2610   -1.4820 n         1 MOL      0.828566
    163 C49        -4.1230   -1.6220   -2.0160 c3        1 MOL     -0.911543
    164 C50        -5.6430   -1.9300   -2.2430 c         1 MOL      0.557690
    165 O22        -6.4480   -1.5000   -1.4350 o         1 MOL     -0.486711
    166 C51        -3.2490   -2.6380   -1.2110 c3        1 MOL      0.759405
    167 C52        -3.3880   -4.1350   -1.5930 c3        1 MOL     -0.463343
    168 C53        -2.8980   -4.3070   -3.0490 c         1 MOL      0.780926
    169 O23        -1.6760   -4.4390   -3.2130 o         1 MOL     -0.773610
    170 O24        -3.8250   -4.3840   -3.9410 o         1 MOL     -0.773610
    171 H80        -3.3300   -0.1170   -0.6350 hn        1 MOL     -0.428264
    172 H81        -3.6320   -1.7270   -2.9710 h1        1 MOL      0.183993
    173 H82        -3.4950   -2.6000   -0.1440 hc        1 MOL     -0.074772
    174 H83        -2.2070   -2.3550   -1.3690 hc        1 MOL     -0.074772
    175 H84        -4.3950   -4.5190   -1.4300 hc        1 MOL      0.103711
    176 H85        -2.7630   -4.6240   -0.8520 hc        1 MOL      0.103711
    177 N15        -6.0450   -2.7860   -3.2150 n         1 MOL     -0.294424
    178 C54        -7.4120   -3.2760   -3.5830 c3        1 MOL     -0.277091
    179 H86        -7.3290   -4.0240   -4.3710 h1        1 MOL      0.116718
    180 H87        -7.8870   -3.7210   -2.7090 h1        1 MOL      0.116718
    181 H88        -8.0150   -2.4400   -3.9380 h1        1 MOL      0.116718
    182 H89        -5.2570   -3.1250   -3.7450 hn        1 MOL      0.354485
    183 Ca1         0.9220   -4.2320   -3.7380 Ca        1 MOL      1.663770
    184 O25         3.1780   -3.9750   -5.1520 oh        1 MOL     -0.868589
    185 H90         3.8750   -4.0580   -4.5000 ho        1 MOL      0.434347
    186 H91         3.5340   -3.3640   -5.7900 ho        1 MOL      0.434347
    187 O26         0.0940   -2.0090   -4.9210 oh        1 MOL     -0.868589
    188 H92        -0.7280   -2.0480   -5.4150 ho        1 MOL      0.434347
    189 H93        -0.0730   -1.3830   -4.2200 ho        1 MOL      0.434347
    190 O27        -0.4290   -4.9130   -5.8250 oh        1 MOL     -0.868589
    191 H94        -1.2820   -4.5800   -6.0790 ho        1 MOL      0.434347
    192 H95        -0.3590   -5.7610   -6.2620 ho        1 MOL      0.434347
@<TRIPOS>BOND
     1    1    2 1   
     2    1    4 1   
     3    1    5 1   
     4    1    6 1   
     5    2    3 2   
     6    2    7 1   
     7    7    8 1   
     8    7   15 1   
     9    8    9 1   
    10    8   11 1   
    11    8   16 1   
    12    9   10 2   
    13    9   19 1   
    14   11   12 1   
    15   11   17 1   
    16   11   18 1   
    17   12   13 1   
    18   12   14 1   
    19   19   20 1   
    20   19   28 1   
    21   20   21 1   
    22   20   23 1   
    23   20   29 1   
    24   21   22 2   
    25   21   41 1   
    26   23   24 1   
    27   23   30 1   
    28   23   31 1   
    29   24   25 1   
    30   24   32 1   
    31   24   33 1   
    32   25   26 1   
    33   25   34 1   
    34   25   35 1   
    35   26   27 1   
    36   26   36 1   
    37   26   37 1   
    38   27   38 1   
    39   27   39 1   
    40   27   40 1   
    41   41   42 1   
    42   41   49 1   
    43   42   43 1   
    44   42   45 1   
    45   42   50 1   
    46   43   44 2   
    47   43   53 1   
    48   45   46 1   
    49   45   51 1   
    50   45   52 1   
    51   46   47 1   
    52   46   48 1   
    53   53   54 1   
    54   53   57 1   
    55   54   55 1   
    56   54   58 1   
    57   54   59 1   
    58   55   56 2   
    59   55   60 1   
    60   60   61 1   
    61   60   68 1   
    62   61   62 1   
    63   61   64 1   
    64   61   69 1   
    65   62   63 2   
    66   62   72 1   
    67   64   65 1   
    68   64   70 1   
    69   64   71 1   
    70   65   66 1   
    71   65   67 1   
    72   72   73 1   
    73   72   76 1   
    74   73   74 1   
    75   73   77 1   
    76   73   78 1   
    77   74   75 2   
    78   74   79 1   
    79   79   80 1   
    80   79   86 1   
    81   80   81 1   
    82   80   83 1   
    83   80   87 1   
    84   81   82 2   
    85   81   93 1   
    86   83   84 1   
    87   83   85 1   
    88   83   88 1   
    89   84   90 1   
    90   84   91 1   
    91   84   92 1   
    92   85   89 1   
    93   93   94 1   
    94   93  101 1   
    95   94   95 1   
    96   94   97 1   
    97   94  102 1   
    98   95   96 2   
    99   95  112 1   
   100   97   98 1   
   101   97   99 1   
   102   97  103 1   
   103   98  100 1   
   104   98  104 1   
   105   98  105 1   
   106   99  106 1   
   107   99  107 1   
   108   99  108 1   
   109  100  109 1   
   110  100  110 1   
   111  100  111 1   
   112  112  113 1   
   113  112  119 1   
   114  113  114 1   
   115  113  116 1   
   116  113  120 1   
   117  114  115 2   
   118  114  126 1   
   119  116  117 1   
   120  116  118 1   
   121  116  121 1   
   122  117  123 1   
   123  117  124 1   
   124  117  125 1   
   125  118  122 1   
   126  126  127 1   
   127  126  133 1   
   128  127  128 1   
   129  127  130 1   
   130  127  134 1   
   131  128  129 2   
   132  128  140 1   
   133  130  131 1   
   134  130  132 1   
   135  130  135 1   
   136  131  137 1   
   137  131  138 1   
   138  131  139 1   
   139  132  136 1   
   140  140  141 1   
   141  140  149 1   
   142  141  142 1   
   143  141  144 1   
   144  141  150 1   
   145  142  143 2   
   146  142  162 1   
   147  144  145 1   
   148  144  151 1   
   149  144  152 1   
   150  145  146 1   
   151  145  153 1   
   152  145  154 1   
   153  146  147 1   
   154  146  155 1   
   155  146  156 1   
   156  147  148 1   
   157  147  157 1   
   158  147  158 1   
   159  148  159 1   
   160  148  160 1   
   161  148  161 1   
   162  162  163 1   
   163  162  171 1   
   164  163  164 1   
   165  163  166 1   
   166  163  172 1   
   167  164  165 2   
   168  164  177 1   
   169  166  167 1   
   170  166  173 1   
   171  166  174 1   
   172  167  168 1   
   173  167  175 1   
   174  167  176 1   
   175  168  169 1   
   176  168  170 1   
   177  177  178 1   
   178  177  182 1   
   179  178  179 1   
   180  178  180 1   
   181  178  181 1   
   182  184  185 1   
   183  184  186 1   
   184  187  188 1   
   185  187  189 1   
   186  190  191 1   
   187  190  192 1   
@<TRIPOS>SUBSTRUCTURE
     1 MOL         1 TEMP              0 ****  ****    0 ROOT
