@<TRIPOS>MOLECULE
MOL
  198   191     1     0     0
SMALL
resp


@<TRIPOS>ATOM
      1 C1          0.8420    8.6250    5.7330 c3        1 MOL     -0.435617
      2 C2          0.4150    8.4020    4.2390 c         1 MOL      0.742947
      3 O1         -0.7350    8.2610    3.9380 o         1 MOL     -0.622383
      4 H1          1.9170    8.7920    5.7820 hc        1 MOL      0.104709
      5 H2          0.3210    9.4940    6.1350 hc        1 MOL      0.104709
      6 H3          0.5850    7.7430    6.3200 hc        1 MOL      0.104709
      7 N1          1.3910    8.2470    3.3740 n         1 MOL     -0.619628
      8 C3          1.2840    7.9140    1.9690 c3        1 MOL      0.166039
      9 C4          1.2180    6.4260    1.7640 c         1 MOL      0.702026
     10 O2          1.8110    5.6580    2.5390 o         1 MOL     -0.552150
     11 C5          2.3320    8.6070    1.0520 c3        1 MOL     -0.213651
     12 C6          3.7560    8.4390    1.5100 c         1 MOL      0.695976
     13 O3          4.0320    8.3950    2.7100 o         1 MOL     -0.659034
     14 O4          4.5860    8.2660    0.5530 o         1 MOL     -0.659034
     15 H4          2.3440    8.4190    3.6840 hn        1 MOL      0.328493
     16 H5          0.3310    8.2780    1.5660 h1        1 MOL      0.014771
     17 H6          2.1470    9.6750    0.9520 hc        1 MOL      0.051250
     18 H7          2.2160    8.2150    0.0440 hc        1 MOL      0.051250
     19 N2          0.4650    6.0400    0.7260 n         1 MOL     -0.654385
     20 C7         -0.0170    4.6310    0.5910 c3        1 MOL      0.046387
     21 C8         -0.0240    4.1020   -0.8460 c         1 MOL      0.817142
     22 O5         -0.5030    4.7230   -1.8040 o         1 MOL     -0.599468
     23 C9         -1.4390    4.5430    1.2870 c3        1 MOL     -0.176182
     24 C10        -2.1830    3.2330    1.0200 c3        1 MOL      0.124310
     25 C11        -3.3900    2.7580    1.8610 c3        1 MOL     -0.337154
     26 C12        -3.9260    1.4760    1.3370 c3        1 MOL      0.220777
     27 N3         -4.9780    1.6540    0.2890 n4        1 MOL     -0.124369
     28 H8          0.0170    6.8010    0.2500 hn        1 MOL      0.322510
     29 H9          0.6390    3.9480    1.1290 h1        1 MOL      0.069052
     30 H10        -2.1560    5.3420    1.1400 hc        1 MOL      0.074349
     31 H11        -1.3670    4.4940    2.3740 hc        1 MOL      0.074349
     32 H12        -1.5110    2.3820    1.1240 hc        1 MOL      0.041777
     33 H13        -2.5920    3.2740    0.0120 hc        1 MOL      0.041777
     34 H14        -4.2280    3.4500    1.8900 hc        1 MOL      0.083712
     35 H15        -3.0110    2.6920    2.8830 hc        1 MOL      0.083712
     36 H16        -4.3800    0.8600    2.1100 hx        1 MOL     -0.029053
     37 H17        -3.1790    0.7780    0.9560 hx        1 MOL     -0.029053
     38 H18        -5.5090    2.5140    0.3540 hn        1 MOL      0.234786
     39 H19        -4.6220    1.5000   -0.6460 hn        1 MOL      0.234786
     40 H20        -5.6960    0.9510    0.3440 hn        1 MOL      0.234786
     41 N4          0.4220    2.8460   -0.9830 n         1 MOL     -0.741483
     42 C13         0.2860    2.1470   -2.2670 c3        1 MOL      0.156422
     43 C14        -0.0340    0.6790   -1.8670 c         1 MOL      0.502356
     44 O6          0.6430    0.1370   -1.0160 o         1 MOL     -0.541360
     45 C15         1.5650    2.3070   -3.0540 c3        1 MOL     -0.440343
     46 C16         2.8890    1.8840   -2.4470 c         1 MOL      0.823886
     47 O7          3.6060    1.0000   -3.0360 o         1 MOL     -0.717174
     48 O8          3.5050    2.6550   -1.6590 o         1 MOL     -0.717174
     49 H21         0.7810    2.4350   -0.1370 hn        1 MOL      0.363827
     50 H22        -0.5350    2.5870   -2.8360 h1        1 MOL      0.101654
     51 H23         1.7420    3.3490   -3.3260 hc        1 MOL      0.134043
     52 H24         1.4840    1.6750   -3.9350 hc        1 MOL      0.134043
     53 N5         -1.0750    0.0250   -2.4550 n         1 MOL     -0.324287
     54 C17        -1.9090    0.5670   -3.5790 c3        1 MOL     -0.243606
     55 C18        -3.1900    1.2360   -3.1150 c         1 MOL      0.676654
     56 O9         -3.3060    1.5630   -1.9240 o         1 MOL     -0.571220
     57 H25        -1.3620   -0.8840   -2.0980 hn        1 MOL      0.267653
     58 H26        -2.2770   -0.3150   -4.0980 h1        1 MOL      0.100017
     59 H27        -1.3800    1.2290   -4.2570 h1        1 MOL      0.100017
     60 N6         -4.2240    1.3880   -3.9620 n         1 MOL     -0.581188
     61 C19        -5.5950    1.9410   -3.6030 c3        1 MOL      0.090744
     62 C20        -6.5540    0.9480   -2.9090 c         1 MOL      0.570333
     63 O10        -6.9520    1.2280   -1.8190 o         1 MOL     -0.533274
     64 C21        -6.2540    2.5530   -4.9210 c3        1 MOL     -0.224373
     65 C22        -7.6770    3.0060   -4.7480 c         1 MOL      0.742263
     66 O11        -8.5690    2.2100   -5.1440 o         1 MOL     -0.686197
     67 O12        -7.8940    4.1160   -4.2350 o         1 MOL     -0.686197
     68 H28        -4.1070    1.2190   -4.9530 hn        1 MOL      0.302798
     69 H29        -5.4020    2.7340   -2.8890 h1        1 MOL      0.083880
     70 H30        -6.1700    1.7790   -5.6810 hc        1 MOL      0.042371
     71 H31        -5.6380    3.3650   -5.3120 hc        1 MOL      0.042371
     72 N7         -6.8250   -0.1510   -3.5440 n         1 MOL     -0.337041
     73 C23        -7.6320   -1.2010   -2.9370 c3        1 MOL     -0.380716
     74 C24        -7.0590   -1.7420   -1.6780 c         1 MOL      0.623538
     75 O13        -5.8330   -1.9870   -1.5660 o         1 MOL     -0.525960
     76 H32        -6.3320   -0.4100   -4.3930 hn        1 MOL      0.300569
     77 H33        -7.8090   -2.0580   -3.5870 h1        1 MOL      0.188794
     78 H34        -8.5930   -0.7260   -2.7210 h1        1 MOL      0.188794
     79 N8         -7.8870   -1.9300   -0.6880 n         1 MOL     -0.470301
     80 C25        -7.5830   -2.5900    0.6220 c3        1 MOL     -0.013265
     81 C26        -6.5840   -1.7360    1.3910 c         1 MOL      0.420918
     82 O14        -6.4550   -0.5390    1.1880 o         1 MOL     -0.480618
     83 C27        -8.8070   -2.7540    1.5810 c3        1 MOL      0.318202
     84 C28        -9.4140   -1.4900    2.0600 c3        1 MOL     -0.383394
     85 O15        -9.8140   -3.4740    0.8240 oh        1 MOL     -0.582964
     86 H35        -8.8220   -1.6380   -0.9300 hn        1 MOL      0.302091
     87 H36        -7.0410   -3.5220    0.4720 h1        1 MOL      0.061588
     88 H37        -8.6230   -3.4570    2.3930 h1        1 MOL      0.034665
     89 H38        -9.4850   -4.3750    0.7560 ho        1 MOL      0.363241
     90 H39        -9.7240   -0.8810    1.2100 hc        1 MOL      0.131164
     91 H40       -10.2740   -1.7750    2.6620 hc        1 MOL      0.131164
     92 H41        -8.7560   -0.9210    2.7210 hc        1 MOL      0.131164
     93 N9         -5.9360   -2.4520    2.2910 n         1 MOL     -0.324503
     94 C29        -4.7750   -1.8860    3.1420 c3        1 MOL      0.020306
     95 C30        -3.4860   -1.9700    2.2760 c         1 MOL      0.574879
     96 O16        -2.7160   -1.0230    2.1780 o         1 MOL     -0.499690
     97 C31        -4.7080   -2.6510    4.4900 c3        1 MOL      0.056548
     98 C32        -6.0730   -2.7600    5.1440 c3        1 MOL     -0.287071
     99 C33        -3.6670   -1.7590    5.2720 c3        1 MOL     -0.074575
    100 C34        -6.7860   -1.4610    5.7270 c3        1 MOL     -0.169497
    101 H42        -6.2190   -3.3900    2.4990 hn        1 MOL      0.227728
    102 H43        -4.9180   -0.8260    3.3270 h1        1 MOL      0.153432
    103 H44        -4.3750   -3.6720    4.2800 hc        1 MOL      0.016606
    104 H45        -5.9520   -3.3420    6.0550 hc        1 MOL      0.099805
    105 H46        -6.7900   -3.2700    4.5020 hc        1 MOL      0.099805
    106 H47        -2.6900   -1.9900    4.8330 hc        1 MOL      0.035383
    107 H48        -3.9230   -0.7320    5.0300 hc        1 MOL      0.035383
    108 H49        -3.6270   -1.9270    6.3500 hc        1 MOL      0.035383
    109 H50        -7.8240   -1.6320    5.9880 hc        1 MOL      0.061013
    110 H51        -6.2670   -1.1610    6.6380 hc        1 MOL      0.061013
    111 H52        -6.8130   -0.6050    5.0440 hc        1 MOL      0.061013
    112 N10        -3.2620   -3.1250    1.5710 n         1 MOL     -0.448084
    113 C35        -2.0870   -3.2520    0.6790 c3        1 MOL     -0.123178
    114 C36        -1.5150   -4.5910    0.9320 c         1 MOL      0.587526
    115 O17        -2.2350   -5.5670    1.2280 o         1 MOL     -0.565364
    116 C37        -2.5470   -3.0230   -0.7900 c3        1 MOL      0.308767
    117 C38        -3.5810   -4.0740   -1.1500 c3        1 MOL     -0.364085
    118 O18        -3.1340   -1.6990   -0.9380 oh        1 MOL     -0.470016
    119 H53        -3.9120   -3.8690    1.7650 hn        1 MOL      0.272280
    120 H54        -1.3060   -2.5010    0.7990 h1        1 MOL      0.124927
    121 H55        -1.6850   -3.0700   -1.4590 h1        1 MOL      0.008472
    122 H56        -4.0530   -1.7760   -1.1960 ho        1 MOL      0.316806
    123 H57        -3.1080   -5.0460   -1.2690 hc        1 MOL      0.093920
    124 H58        -4.4320   -4.0850   -0.4590 hc        1 MOL      0.093920
    125 H59        -4.0570   -3.7620   -2.0700 hc        1 MOL      0.093920
    126 N11        -0.2390   -4.6890    0.8060 n         1 MOL     -0.402460
    127 C39         0.4460   -6.0140    0.7010 c3        1 MOL      0.006068
    128 C40         1.8930   -5.9150    1.2880 c         1 MOL      0.514035
    129 O19         2.1870   -6.3090    2.3830 o         1 MOL     -0.538323
    130 C41         0.3100   -6.6760   -0.6840 c3        1 MOL      0.195531
    131 C42         1.1210   -8.0000   -0.6880 c3        1 MOL     -0.352356
    132 O20         0.8260   -5.9230   -1.6890 oh        1 MOL     -0.600681
    133 H60         0.3780   -3.9140    0.6000 hn        1 MOL      0.265529
    134 H61         0.1000   -6.7020    1.4710 h1        1 MOL      0.087448
    135 H62        -0.7090   -6.9640   -0.9260 h1        1 MOL      0.079872
    136 H63         0.6060   -6.4290   -2.4730 ho        1 MOL      0.422706
    137 H64         2.1000   -7.6350   -0.9770 hc        1 MOL      0.090002
    138 H65         1.2100   -8.6350    0.1870 hc        1 MOL      0.090002
    139 H66         0.6380   -8.6370   -1.4320 hc        1 MOL      0.090002
    140 N12         2.8000   -5.3270    0.5540 n         1 MOL     -0.297148
    141 C43         4.2110   -5.1200    1.0910 c3        1 MOL      0.015215
    142 C44         4.7130   -3.7940    0.5140 c         1 MOL      0.296475
    143 O21         4.4610   -3.3410   -0.6360 o         1 MOL     -0.470508
    144 C45         4.9250   -6.3780    0.6660 c3        1 MOL      0.020044
    145 C46         6.4260   -6.2810    0.8010 c3        1 MOL     -0.022249
    146 C47         6.9570   -7.7290    0.6490 c3        1 MOL     -0.094704
    147 C48         8.4610   -7.8180    0.2930 c3        1 MOL     -0.066925
    148 N13         8.7000   -7.4050   -1.1120 n4        1 MOL     -0.184077
    149 H67         2.6340   -5.1550   -0.4320 hn        1 MOL      0.264511
    150 H68         4.1350   -5.0830    2.1850 h1        1 MOL      0.106836
    151 H69         4.5990   -6.5490   -0.3540 hc        1 MOL      0.016888
    152 H70         4.5270   -7.2170    1.2450 hc        1 MOL      0.016888
    153 H71         6.6610   -5.8550    1.7700 hc        1 MOL      0.044635
    154 H72         6.9190   -5.6670    0.0440 hc        1 MOL      0.044635
    155 H73         6.3710   -8.2010   -0.1450 hc        1 MOL      0.070659
    156 H74         6.8290   -8.2220    1.6070 hc        1 MOL      0.070659
    157 H75         8.7210   -8.8580    0.4360 hx        1 MOL      0.109336
    158 H76         9.1200   -7.2140    0.9160 hx        1 MOL      0.109336
    159 H77         8.3800   -8.1420   -1.7280 hn        1 MOL      0.213955
    160 H78         8.3110   -6.5060   -1.3430 hn        1 MOL      0.213955
    161 H79         9.6870   -7.2890   -1.2840 hn        1 MOL      0.213955
    162 N14         5.5620   -3.0680    1.2790 n         1 MOL     -0.284067
    163 C49         6.1130   -1.7660    0.8680 c3        1 MOL      0.218469
    164 C50         4.9660   -0.7370    0.6100 c         1 MOL      0.574148
    165 O22         4.7690   -0.1550   -0.4440 o         1 MOL     -0.707454
    166 C51         7.0790   -1.2800    1.9750 c3        1 MOL     -0.302382
    167 C52         7.6520    0.0580    1.5520 c3        1 MOL     -0.017006
    168 C53         8.4020   -0.0190    0.1750 c         1 MOL      0.610843
    169 O23         7.7830    0.0910   -0.9280 o         1 MOL     -0.661445
    170 O24         9.6190   -0.1510    0.2160 o         1 MOL     -0.661445
    171 H80         6.0800   -3.5510    2.0030 hn        1 MOL      0.181270
    172 H81         6.6430   -1.8980   -0.0730 h1        1 MOL     -0.021504
    173 H82         7.9410   -1.9480    1.9130 hc        1 MOL      0.096638
    174 H83         6.6240   -1.3330    2.9570 hc        1 MOL      0.096638
    175 H84         8.3790    0.3780    2.2940 hc        1 MOL      0.005018
    176 H85         6.8960    0.8510    1.5610 hc        1 MOL      0.005018
    177 N15         3.9980   -0.3780    1.4210 n         1 MOL     -0.221247
    178 C54         3.8160   -0.8510    2.7980 c3        1 MOL     -0.196457
    179 H86         4.2020   -0.1050    3.4930 h1        1 MOL      0.075921
    180 H87         2.7550   -1.0110    2.9900 h1        1 MOL      0.075921
    181 H88         4.3560   -1.7880    2.9350 h1        1 MOL      0.075921
    182 H89         3.4140    0.3630    1.0770 hn        1 MOL      0.305248
    183 Ca1         5.9130    1.4820   -2.0240 Ca        1 MOL      1.722423
    184 O25         7.3150    1.2110   -4.3400 oh        1 MOL     -0.850626
    185 H90         7.3300    0.3290   -4.7300 ho        1 MOL      0.422113
    186 H91         7.9970    1.6930   -4.8030 ho        1 MOL      0.422113
    187 O26         5.9890   -1.1710   -3.1710 oh        1 MOL     -0.850626
    188 H92         5.2170   -1.7010   -3.3800 ho        1 MOL      0.422113
    189 H93         6.6120   -1.7900   -2.7980 ho        1 MOL      0.422113
    190 O27         7.9530    3.2210   -1.8630 oh        1 MOL     -0.850626
    191 H94         7.8060    4.1420   -1.6630 ho        1 MOL      0.422113
    192 H95         8.8560    3.0560   -1.6100 ho        1 MOL      0.422113
    193 O28         5.9180    3.0920    0.4150 oh        1 MOL     -0.850626
    194 H96         6.6880    3.6580    0.2660 ho        1 MOL      0.422113
    195 H97         5.5120    3.4550    1.1990 ho        1 MOL      0.422113
    196 O29         5.6300    4.0330   -3.3430 oh        1 MOL     -0.850626
    197 H98         6.4700    4.4610   -3.4850 ho        1 MOL      0.422113
    198 H99         4.9970    4.7450   -3.3210 ho        1 MOL      0.422113
@<TRIPOS>BOND
     1    1    2 1   
     2    1    4 1   
     3    1    5 1   
     4    1    6 1   
     5    2    3 2   
     6    2    7 1   
     7    7    8 1   
     8    7   15 1   
     9    8    9 1   
    10    8   11 1   
    11    8   16 1   
    12    9   10 2   
    13    9   19 1   
    14   11   12 1   
    15   11   17 1   
    16   11   18 1   
    17   12   13 1   
    18   12   14 1   
    19   19   20 1   
    20   19   28 1   
    21   20   21 1   
    22   20   23 1   
    23   20   29 1   
    24   21   22 2   
    25   21   41 1   
    26   23   24 1   
    27   23   30 1   
    28   23   31 1   
    29   24   25 1   
    30   24   32 1   
    31   24   33 1   
    32   25   26 1   
    33   25   34 1   
    34   25   35 1   
    35   26   27 1   
    36   26   36 1   
    37   26   37 1   
    38   27   38 1   
    39   27   39 1   
    40   27   40 1   
    41   41   42 1   
    42   41   49 1   
    43   42   43 1   
    44   42   45 1   
    45   42   50 1   
    46   43   44 2   
    47   43   53 1   
    48   45   46 1   
    49   45   51 1   
    50   45   52 1   
    51   46   47 1   
    52   46   48 1   
    53   53   54 1   
    54   53   57 1   
    55   54   55 1   
    56   54   58 1   
    57   54   59 1   
    58   55   56 2   
    59   55   60 1   
    60   60   61 1   
    61   60   68 1   
    62   61   62 1   
    63   61   64 1   
    64   61   69 1   
    65   62   63 2   
    66   62   72 1   
    67   64   65 1   
    68   64   70 1   
    69   64   71 1   
    70   65   66 1   
    71   65   67 1   
    72   72   73 1   
    73   72   76 1   
    74   73   74 1   
    75   73   77 1   
    76   73   78 1   
    77   74   75 2   
    78   74   79 1   
    79   79   80 1   
    80   79   86 1   
    81   80   81 1   
    82   80   83 1   
    83   80   87 1   
    84   81   82 2   
    85   81   93 1   
    86   83   84 1   
    87   83   85 1   
    88   83   88 1   
    89   84   90 1   
    90   84   91 1   
    91   84   92 1   
    92   85   89 1   
    93   93   94 1   
    94   93  101 1   
    95   94   95 1   
    96   94   97 1   
    97   94  102 1   
    98   95   96 2   
    99   95  112 1   
   100   97   98 1   
   101   97   99 1   
   102   97  103 1   
   103   98  100 1   
   104   98  104 1   
   105   98  105 1   
   106   99  106 1   
   107   99  107 1   
   108   99  108 1   
   109  100  109 1   
   110  100  110 1   
   111  100  111 1   
   112  112  113 1   
   113  112  119 1   
   114  113  114 1   
   115  113  116 1   
   116  113  120 1   
   117  114  115 2   
   118  114  126 1   
   119  116  117 1   
   120  116  118 1   
   121  116  121 1   
   122  117  123 1   
   123  117  124 1   
   124  117  125 1   
   125  118  122 1   
   126  126  127 1   
   127  126  133 1   
   128  127  128 1   
   129  127  130 1   
   130  127  134 1   
   131  128  129 2   
   132  128  140 1   
   133  130  131 1   
   134  130  132 1   
   135  130  135 1   
   136  131  137 1   
   137  131  138 1   
   138  131  139 1   
   139  132  136 1   
   140  140  141 1   
   141  140  149 1   
   142  141  142 1   
   143  141  144 1   
   144  141  150 1   
   145  142  143 2   
   146  142  162 1   
   147  144  145 1   
   148  144  151 1   
   149  144  152 1   
   150  145  146 1   
   151  145  153 1   
   152  145  154 1   
   153  146  147 1   
   154  146  155 1   
   155  146  156 1   
   156  147  148 1   
   157  147  157 1   
   158  147  158 1   
   159  148  159 1   
   160  148  160 1   
   161  148  161 1   
   162  162  163 1   
   163  162  171 1   
   164  163  164 1   
   165  163  166 1   
   166  163  172 1   
   167  164  165 2   
   168  164  177 1   
   169  166  167 1   
   170  166  173 1   
   171  166  174 1   
   172  167  168 1   
   173  167  175 1   
   174  167  176 1   
   175  168  169 1   
   176  168  170 1   
   177  177  178 1   
   178  177  182 1   
   179  178  179 1   
   180  178  180 1   
   181  178  181 1   
   182  184  185 1   
   183  184  186 1   
   184  187  188 1   
   185  187  189 1   
   186  190  191 1   
   187  190  192 1   
   188  193  194 1   
   189  193  195 1   
   190  196  197 1   
   191  196  198 1   
@<TRIPOS>SUBSTRUCTURE
     1 MOL         1 TEMP              0 ****  ****    0 ROOT
