@<TRIPOS>MOLECULE
MOL
  178   175     1     0     0
SMALL
resp


@<TRIPOS>ATOM
      1 C1          6.6410   -5.0230    4.6420 c3        1 MOL     -0.262099
      2 C2          6.1640   -3.5410    4.4960 c         1 MOL      0.581927
      3 O1          5.3290   -3.0330    5.1990 o         1 MOL     -0.550440
      4 H1          5.7960   -5.6930    4.4870 hc        1 MOL      0.062018
      5 H2          7.4110   -5.2310    3.9000 hc        1 MOL      0.062018
      6 H3          7.0470   -5.1780    5.6420 hc        1 MOL      0.062018
      7 N1          6.8980   -2.7370    3.6880 n         1 MOL     -0.372551
      8 C3          8.1660   -3.0130    3.0210 c3        1 MOL      0.050648
      9 C4          8.0450   -3.2010    1.4620 c         1 MOL      0.559619
     10 O2          7.1840   -2.4850    0.8570 o         1 MOL     -0.598620
     11 C5          9.1750   -1.9630    3.3650 c3        1 MOL     -0.290417
     12 C6          8.8160   -0.4850    2.9980 c         1 MOL      0.701577
     13 O3          9.6100    0.3440    3.4790 o         1 MOL     -0.671753
     14 O4          7.7800   -0.1850    2.3640 o         1 MOL     -0.671753
     15 H4          6.4740   -1.8320    3.5030 hn        1 MOL      0.274277
     16 H5          8.6470   -3.9230    3.3710 h1        1 MOL      0.057797
     17 H6         10.0480   -2.1610    2.7410 hc        1 MOL      0.067431
     18 H7          9.4520   -2.0130    4.4120 hc        1 MOL      0.067431
     19 N2          8.8250   -4.0790    0.9010 n         1 MOL     -0.431672
     20 C7          8.9670   -4.5590   -0.4510 c3        1 MOL      0.150203
     21 C8          9.1150   -3.4600   -1.5890 c         1 MOL      0.247642
     22 O5          9.5390   -3.7720   -2.7440 o         1 MOL     -0.501892
     23 C9          7.7070   -5.2960   -0.7540 c3        1 MOL     -0.375804
     24 H8          9.4860   -4.4820    1.5630 hn        1 MOL      0.258157
     25 H9          9.8110   -5.2400   -0.4770 h1        1 MOL      0.078023
     26 H10         7.2210   -5.7670    0.1130 hc        1 MOL      0.118977
     27 H11         6.9200   -4.6150   -1.0640 hc        1 MOL      0.118977
     28 H12         7.9300   -6.0430   -1.5140 hc        1 MOL      0.118977
     29 N3          8.7540   -2.2350   -1.3030 n         1 MOL     -0.130198
     30 C10         8.6010   -1.1620   -2.2970 c3        1 MOL     -0.044125
     31 C11         8.5660    0.2720   -1.6200 c         1 MOL      0.472048
     32 O6          8.4230    0.3720   -0.4010 o         1 MOL     -0.482248
     33 C12         7.2780   -1.3560   -3.0170 c3        1 MOL      0.137668
     34 C13         6.0500   -1.8560   -2.2570 c         1 MOL      0.654524
     35 O7          5.3930   -2.8210   -2.6150 o         1 MOL     -0.669342
     36 O8          5.6130   -1.0560   -1.3950 o         1 MOL     -0.669342
     37 H13         8.6420   -2.0440   -0.3270 hn        1 MOL      0.177033
     38 H14         9.4290   -1.1490   -2.9960 h1        1 MOL      0.058693
     39 H15         7.4340   -2.0320   -3.8570 hc        1 MOL     -0.044880
     40 H16         7.0780   -0.4010   -3.5240 hc        1 MOL     -0.044880
     41 N4          8.7270    1.3450   -2.3810 n         1 MOL     -0.450112
     42 C14         8.3870    2.6950   -1.9160 c3        1 MOL     -0.076361
     43 C15         6.9130    2.9860   -1.4650 c         1 MOL      0.705916
     44 O9          6.2650    2.1140   -0.8090 o         1 MOL     -0.645187
     45 H17         8.7330    1.1750   -3.3770 hn        1 MOL      0.296636
     46 H18         8.7470    3.4150   -2.6500 h1        1 MOL      0.095781
     47 H19         9.0490    3.0150   -1.1130 h1        1 MOL      0.095781
     48 N5          6.4670    4.1760   -1.7210 n         1 MOL     -0.692422
     49 C16         5.2730    4.7360   -1.0750 c3        1 MOL      0.495060
     50 C17         4.0200    3.8740   -1.2480 c         1 MOL      0.424663
     51 O10         3.7570    3.3930   -2.3730 o         1 MOL     -0.486215
     52 C18         5.1020    6.1540   -1.6320 c3        1 MOL     -0.339198
     53 C19         4.0060    6.8960   -0.9130 c         1 MOL      0.683514
     54 N6          3.2590    7.6850   -1.6820 n         1 MOL     -0.789333
     55 O11         3.8830    6.7270    0.2950 o         1 MOL     -0.556826
     56 H20         7.1160    4.8790   -2.0320 hn        1 MOL      0.320395
     57 H21         5.4890    4.7840   -0.0070 h1        1 MOL     -0.047744
     58 H22         4.9250    6.1690   -2.7020 hc        1 MOL      0.080228
     59 H23         6.0070    6.7310   -1.4370 hc        1 MOL      0.080228
     60 H24         3.5300    7.8650   -2.6410 hn        1 MOL      0.380378
     61 H25         2.4800    8.2050   -1.3140 hn        1 MOL      0.380378
     62 N7          3.2070    3.7850   -0.1700 n         1 MOL     -0.376367
     63 C20         2.0780    2.8230   -0.0640 c3        1 MOL     -0.216026
     64 C21         2.4760    1.3730   -0.5000 c         1 MOL      0.534493
     65 O12         3.4120    0.7400    0.0570 o         1 MOL     -0.642690
     66 H26         3.4470    4.3750    0.6140 hn        1 MOL      0.268573
     67 H27         1.1650    3.2180   -0.4950 h1        1 MOL      0.168353
     68 H28         1.9910    2.7280    1.0150 h1        1 MOL      0.168353
     69 N8          1.8110    0.8400   -1.5480 n         1 MOL     -0.090950
     70 C22         0.7620    1.4030   -2.3830 c3        1 MOL     -0.458319
     71 C23        -0.5700    1.7280   -1.7270 c         1 MOL      0.595440
     72 O13        -1.2460    2.6240   -2.2520 o         1 MOL     -0.549326
     73 C24         0.4250    0.5000   -3.6070 c3        1 MOL      0.513935
     74 C25         1.5580    0.3970   -4.6330 c3        1 MOL     -0.295610
     75 O14         0.1660   -0.7810   -3.1630 oh        1 MOL     -0.671607
     76 H29         2.0790   -0.1320   -1.6970 hn        1 MOL      0.185501
     77 H30         1.1310    2.3420   -2.8190 h1        1 MOL      0.155175
     78 H31        -0.4280    0.8460   -4.1880 h1        1 MOL      0.061638
     79 H32         1.0220   -1.2090   -3.0450 ho        1 MOL      0.439687
     80 H33         1.4310   -0.4390   -5.3220 hc        1 MOL      0.066521
     81 H34         1.5100    1.3390   -5.1820 hc        1 MOL      0.066521
     82 H35         2.5120    0.2970   -4.1230 hc        1 MOL      0.066521
     83 N9         -0.8760    1.1280   -0.5650 n         1 MOL     -0.414433
     84 C26        -2.1890    1.3020    0.1800 c3        1 MOL     -0.037638
     85 C27        -1.9950    1.6580    1.7120 c         1 MOL      0.407585
     86 O15        -1.0620    1.2360    2.3770 o         1 MOL     -0.536856
     87 C28        -3.0760    0.0220   -0.0510 c3        1 MOL      0.011970
     88 C29        -2.4950   -1.2230    0.6390 c3        1 MOL      0.098360
     89 C30        -3.4020   -0.3400   -1.5270 c3        1 MOL     -0.074687
     90 C31        -3.2960   -2.5370    0.6960 c3        1 MOL     -0.186711
     91 H36        -0.2450    0.5530   -0.0280 hn        1 MOL      0.234248
     92 H37        -2.7680    2.1160   -0.2470 h1        1 MOL      0.160402
     93 H38        -4.0450    0.2630    0.3830 hc        1 MOL      0.021323
     94 H39        -2.2270   -1.0310    1.6810 hc        1 MOL      0.000556
     95 H40        -1.5360   -1.4570    0.1760 hc        1 MOL      0.000556
     96 H41        -2.5160   -0.6750   -2.0700 hc        1 MOL      0.038158
     97 H42        -4.1670   -1.0910   -1.7150 hc        1 MOL      0.038158
     98 H43        -3.6880    0.5480   -2.0850 hc        1 MOL      0.038158
     99 H44        -2.8460   -3.2220    1.4150 hc        1 MOL      0.038700
    100 H45        -4.3590   -2.3410    0.8500 hc        1 MOL      0.038700
    101 H46        -3.2810   -2.8250   -0.3580 hc        1 MOL      0.038700
    102 N10        -2.9360    2.4270    2.2800 n         1 MOL     -0.408483
    103 C32        -4.2310    2.9070    1.8030 c3        1 MOL      0.083642
    104 C33        -5.3280    1.8410    2.1280 c         1 MOL      0.585964
    105 O16        -5.2370    1.0610    3.0980 o         1 MOL     -0.572161
    106 C34        -4.5160    4.2660    2.4320 c3        1 MOL     -0.082176
    107 C35        -5.8070    4.9390    1.9440 c         1 MOL      0.698126
    108 O17        -5.8380    4.9970    0.6570 o         1 MOL     -0.694098
    109 O18        -6.5500    5.5420    2.7160 o         1 MOL     -0.694098
    110 H47        -2.9640    2.6800    3.2610 hn        1 MOL      0.289776
    111 H48        -4.2270    3.0550    0.7240 h1        1 MOL      0.019471
    112 H49        -3.6660    4.9000    2.2030 hc        1 MOL     -0.010545
    113 H50        -4.5390    4.2000    3.5300 hc        1 MOL     -0.010545
    114 N11        -6.5060    1.9660    1.4580 n         1 MOL     -0.560896
    115 C36        -7.6850    1.0960    1.3810 c3        1 MOL      0.406976
    116 C37        -8.5640    1.4030    0.1900 c         1 MOL      0.298065
    117 O19        -8.4400    2.5390   -0.2960 o         1 MOL     -0.476138
    118 C38        -8.5250    1.1720    2.7230 c3        1 MOL     -0.247752
    119 C39        -9.8670    0.4790    2.8510 ca        1 MOL      0.168945
    120 C40       -11.0980    1.0040    2.3680 ca        1 MOL     -0.227863
    121 C41        -9.9390   -0.7900    3.4860 ca        1 MOL     -0.227863
    122 C42       -12.3090    0.3350    2.3590 ca        1 MOL     -0.045310
    123 C43       -11.1590   -1.5220    3.4030 ca        1 MOL     -0.045310
    124 C44       -12.3660   -0.9590    2.9290 ca        1 MOL     -0.223785
    125 H51        -6.6010    2.8560    0.9850 hn        1 MOL      0.258932
    126 H52        -7.3670    0.0580    1.2980 h1        1 MOL      0.001658
    127 H53        -8.6690    2.2220    2.9460 hc        1 MOL      0.079001
    128 H54        -7.9920    0.7080    3.5570 hc        1 MOL      0.079001
    129 H55       -11.1330    1.9940    1.9250 ha        1 MOL      0.127505
    130 H56        -9.0810   -1.3140    3.8860 ha        1 MOL      0.127505
    131 H57       -13.2310    0.7350    1.9560 ha        1 MOL      0.086162
    132 H58       -11.1460   -2.5150    3.8370 ha        1 MOL      0.086162
    133 H59       -13.2330   -1.5970    2.7960 ha        1 MOL      0.117782
    134 N12        -9.4230    0.4840   -0.4230 n         1 MOL      0.074562
    135 C45        -9.3450   -0.9760   -0.4380 c3        1 MOL      0.062904
    136 C46        -7.9590   -1.5040   -0.8370 c         1 MOL      0.270425
    137 O20        -6.9810   -0.7110   -0.9760 o         1 MOL     -0.497255
    138 C47       -10.2650   -1.5130   -1.5780 c3        1 MOL      0.020639
    139 C48       -10.4700   -0.2890   -2.4080 c3        1 MOL      0.014962
    140 C49       -10.4820    0.8350   -1.3600 c3        1 MOL      0.010671
    141 H60        -9.5880   -1.4390    0.5180 h1        1 MOL     -0.066045
    142 H61        -9.8380   -2.2870   -2.2140 hc        1 MOL     -0.031645
    143 H62       -11.2050   -1.8680   -1.1460 hc        1 MOL     -0.031645
    144 H63        -9.6680   -0.1570   -3.1330 hc        1 MOL      0.026814
    145 H64       -11.4180   -0.3020   -2.9400 hc        1 MOL      0.026814
    146 H65       -10.3310    1.7690   -1.8980 h1        1 MOL      0.002396
    147 H66       -11.3740    0.9160   -0.7430 h1        1 MOL      0.002396
    148 N13        -7.7770   -2.8020   -0.9670 n         1 MOL     -0.056003
    149 C50        -6.4930   -3.4870   -1.1490 c3        1 MOL      0.188681
    150 C51        -6.6740   -4.9940   -0.7050 c         1 MOL      0.319288
    151 O21        -6.1510   -5.9240   -1.3910 o         1 MOL     -0.505532
    152 C52        -5.9490   -3.3630   -2.6390 c3        1 MOL     -0.125083
    153 C53        -6.7910   -3.9450   -3.8000 c3        1 MOL     -0.167002
    154 C54        -7.3690   -2.8450   -4.6480 c         1 MOL      0.758627
    155 O22        -6.5790   -2.2120   -5.4230 o         1 MOL     -0.739783
    156 O23        -8.6170   -2.7270   -4.8110 o         1 MOL     -0.739783
    157 H67        -8.6160   -3.3690   -0.9800 hn        1 MOL      0.158455
    158 H68        -5.6840   -3.0460   -0.5540 h1        1 MOL      0.037233
    159 H69        -4.9300   -3.7490   -2.6540 hc        1 MOL      0.051174
    160 H70        -5.7500   -2.3060   -2.8400 hc        1 MOL      0.051174
    161 H71        -7.5740   -4.6170   -3.4690 hc        1 MOL      0.018457
    162 H72        -6.1170   -4.4980   -4.4640 hc        1 MOL      0.018457
    163 N14        -7.3000   -5.3180    0.4820 n         1 MOL     -0.361712
    164 C55        -7.6150   -4.4910    1.6530 c3        1 MOL     -0.023064
    165 H73        -7.2940   -3.4660    1.4700 h1        1 MOL      0.040810
    166 H74        -8.6900   -4.5080    1.8320 h1        1 MOL      0.040810
    167 H75        -7.0940   -4.8840    2.5270 h1        1 MOL      0.040810
    168 H76        -7.4850   -6.2980    0.5890 hn        1 MOL      0.272342
    169 Ca1         5.8560   -0.0340    0.8440 Ca        1 MOL      1.717199
    170 O24         4.7270    0.1310    3.1320 oh        1 MOL     -0.828785
    171 H77         4.9270    0.1600    4.0710 ho        1 MOL      0.405144
    172 H78         3.8960    0.6110    3.0550 ho        1 MOL      0.405144
    173 O25         6.4400    2.3660    2.1220 oh        1 MOL     -0.828785
    174 H79         6.6650    2.2200    3.0420 ho        1 MOL      0.405144
    175 H80         5.7810    3.0660    2.1420 ho        1 MOL      0.405144
    176 O26         4.2540   -2.1830    1.5060 oh        1 MOL     -0.828785
    177 H81         4.0080   -2.7840    0.8070 ho        1 MOL      0.405144
    178 H82         3.7770   -2.4920    2.2670 ho        1 MOL      0.405144
@<TRIPOS>BOND
     1    1    2 1   
     2    1    4 1   
     3    1    5 1   
     4    1    6 1   
     5    2    3 2   
     6    2    7 1   
     7    7    8 1   
     8    7   15 1   
     9    8    9 1   
    10    8   11 1   
    11    8   16 1   
    12    9   10 2   
    13    9   19 1   
    14   11   12 1   
    15   11   17 1   
    16   11   18 1   
    17   12   13 1   
    18   12   14 1   
    19   19   20 1   
    20   19   24 1   
    21   20   21 1   
    22   20   23 1   
    23   20   25 1   
    24   21   22 2   
    25   21   29 1   
    26   23   26 1   
    27   23   27 1   
    28   23   28 1   
    29   29   30 1   
    30   29   37 1   
    31   30   31 1   
    32   30   33 1   
    33   30   38 1   
    34   31   32 2   
    35   31   41 1   
    36   33   34 1   
    37   33   39 1   
    38   33   40 1   
    39   34   35 1   
    40   34   36 1   
    41   41   42 1   
    42   41   45 1   
    43   42   43 1   
    44   42   46 1   
    45   42   47 1   
    46   43   44 2   
    47   43   48 1   
    48   48   49 1   
    49   48   56 1   
    50   49   50 1   
    51   49   52 1   
    52   49   57 1   
    53   50   51 2   
    54   50   62 1   
    55   52   53 1   
    56   52   58 1   
    57   52   59 1   
    58   53   54 1   
    59   53   55 2   
    60   54   60 1   
    61   54   61 1   
    62   62   63 1   
    63   62   66 1   
    64   63   64 1   
    65   63   67 1   
    66   63   68 1   
    67   64   65 2   
    68   64   69 1   
    69   69   70 1   
    70   69   76 1   
    71   70   71 1   
    72   70   73 1   
    73   70   77 1   
    74   71   72 2   
    75   71   83 1   
    76   73   74 1   
    77   73   75 1   
    78   73   78 1   
    79   74   80 1   
    80   74   81 1   
    81   74   82 1   
    82   75   79 1   
    83   83   84 1   
    84   83   91 1   
    85   84   85 1   
    86   84   87 1   
    87   84   92 1   
    88   85   86 2   
    89   85  102 1   
    90   87   88 1   
    91   87   89 1   
    92   87   93 1   
    93   88   90 1   
    94   88   94 1   
    95   88   95 1   
    96   89   96 1   
    97   89   97 1   
    98   89   98 1   
    99   90   99 1   
   100   90  100 1   
   101   90  101 1   
   102  102  103 1   
   103  102  110 1   
   104  103  104 1   
   105  103  106 1   
   106  103  111 1   
   107  104  105 2   
   108  104  114 1   
   109  106  107 1   
   110  106  112 1   
   111  106  113 1   
   112  107  108 1   
   113  107  109 1   
   114  114  115 1   
   115  114  125 1   
   116  115  116 1   
   117  115  118 1   
   118  115  126 1   
   119  116  117 2   
   120  116  134 1   
   121  118  119 1   
   122  118  127 1   
   123  118  128 1   
   124  119  120 ar  
   125  119  121 ar  
   126  120  122 ar  
   127  120  129 1   
   128  121  123 ar  
   129  121  130 1   
   130  122  124 ar  
   131  122  131 1   
   132  123  124 ar  
   133  123  132 1   
   134  124  133 1   
   135  134  135 1   
   136  134  140 1   
   137  135  136 1   
   138  135  138 1   
   139  135  141 1   
   140  136  137 2   
   141  136  148 1   
   142  138  139 1   
   143  138  142 1   
   144  138  143 1   
   145  139  140 1   
   146  139  144 1   
   147  139  145 1   
   148  140  146 1   
   149  140  147 1   
   150  148  149 1   
   151  148  157 1   
   152  149  150 1   
   153  149  152 1   
   154  149  158 1   
   155  150  151 2   
   156  150  163 1   
   157  152  153 1   
   158  152  159 1   
   159  152  160 1   
   160  153  154 1   
   161  153  161 1   
   162  153  162 1   
   163  154  155 1   
   164  154  156 1   
   165  163  164 1   
   166  163  168 1   
   167  164  165 1   
   168  164  166 1   
   169  164  167 1   
   170  170  171 1   
   171  170  172 1   
   172  173  174 1   
   173  173  175 1   
   174  176  177 1   
   175  176  178 1   
@<TRIPOS>SUBSTRUCTURE
     1 MOL         1 TEMP              0 ****  ****    0 ROOT
