@<TRIPOS>MOLECULE
MOL
  189   185     1     0     0
SMALL
resp


@<TRIPOS>ATOM
      1 C1          9.9470    0.5880    1.9280 c3        1 MOL     -0.479493
      2 C2          8.5780    0.4810    1.2550 c         1 MOL      0.757054
      3 O1          7.5370    0.2220    1.8230 o         1 MOL     -0.649915
      4 H1         10.5990   -0.2020    1.5540 hc        1 MOL      0.126042
      5 H2         10.3890    1.5590    1.7030 hc        1 MOL      0.126042
      6 H3          9.8310    0.4830    3.0080 hc        1 MOL      0.126042
      7 N1          8.6310    0.5350   -0.0930 n         1 MOL     -0.554842
      8 C3          7.3680    0.3690   -0.9270 c3        1 MOL      0.164425
      9 C4          6.9520   -1.0390   -1.1720 c         1 MOL      0.470379
     10 O2          6.6210   -1.3020   -2.3730 o         1 MOL     -0.446925
     11 C5          7.6220    1.2930   -2.1900 c3        1 MOL     -0.276878
     12 C6          8.9240    0.9640   -2.9600 c         1 MOL      0.702552
     13 O3          8.8730    0.1940   -4.0200 o         1 MOL     -0.627751
     14 O4         10.0080    1.4530   -2.6150 o         1 MOL     -0.627751
     15 H4          9.5320    0.7500   -0.4950 hn        1 MOL      0.254946
     16 H5          6.5400    0.7730   -0.3430 h1        1 MOL      0.036717
     17 H6          7.5290    2.3250   -1.8620 hc        1 MOL      0.102651
     18 H7          6.8270    1.2430   -2.9290 hc        1 MOL      0.102651
     19 N2          6.9610   -1.8660   -0.1500 n         1 MOL     -0.336423
     20 C7          6.3810   -3.2440   -0.1270 c3        1 MOL      0.086558
     21 C8          5.0120   -3.4260   -0.8340 c         1 MOL      0.393114
     22 O5          4.8910   -4.3640   -1.6720 o         1 MOL     -0.520924
     23 C9          6.3130   -3.9250    1.3210 c3        1 MOL      0.022362
     24 C10         7.5360   -3.9300    2.1860 c3        1 MOL      0.074635
     25 C11         8.7000   -4.6490    1.6140 c3        1 MOL      0.042248
     26 C12         9.9320   -4.5200    2.5060 c3        1 MOL     -0.093798
     27 N3          9.7020   -5.1670    3.8420 n4        1 MOL     -0.220104
     28 H8          7.3370   -1.4950    0.7060 hn        1 MOL      0.189233
     29 H9          7.0240   -3.9650   -0.6500 h1        1 MOL      0.037095
     30 H10         5.8690   -4.9220    1.3350 hc        1 MOL      0.007432
     31 H11         5.7050   -3.2130    1.8730 hc        1 MOL      0.007432
     32 H12         7.2730   -4.3050    3.1740 hc        1 MOL     -0.029210
     33 H13         7.9130   -2.9120    2.3020 hc        1 MOL     -0.029210
     34 H14         8.8950   -4.2150    0.6370 hc        1 MOL      0.033122
     35 H15         8.4090   -5.6830    1.4290 hc        1 MOL      0.033122
     36 H16        10.2990   -3.5080    2.6610 hx        1 MOL      0.111886
     37 H17        10.6730   -5.1700    2.0390 hx        1 MOL      0.111886
     38 H18        10.5550   -5.1050    4.3730 hn        1 MOL      0.290117
     39 H19         9.0350   -4.6530    4.4040 hn        1 MOL      0.290117
     40 H20         9.4310   -6.1340    3.8310 hn        1 MOL      0.290117
     41 N4          3.9880   -2.5910   -0.6340 n         1 MOL     -0.265070
     42 C13         3.7390   -1.5870    0.4100 c3        1 MOL     -0.069591
     43 C14         3.3490   -0.1470   -0.1000 c         1 MOL     -0.030599
     44 O6          2.9130    0.0210   -1.2520 o         1 MOL     -0.183058
     45 C15         2.6760   -2.0450    1.4090 c3        1 MOL     -0.157316
     46 C16         1.4040   -2.5260    0.8000 c         1 MOL      0.715647
     47 O7          1.0990   -2.1740   -0.3410 o         1 MOL     -0.642494
     48 O8          0.6410   -3.2580    1.4510 o         1 MOL     -0.642494
     49 H21         3.2850   -2.6800   -1.3530 hn        1 MOL      0.293036
     50 H22         4.6930   -1.4830    0.9150 h1        1 MOL      0.135041
     51 H23         2.4600   -1.2190    2.0940 hc        1 MOL      0.043161
     52 H24         3.1430   -2.9300    1.8360 hc        1 MOL      0.043161
     53 N5          3.5510    0.9120    0.6960 n         1 MOL     -0.141680
     54 C17         3.5950    2.2910    0.2520 c3        1 MOL     -0.019168
     55 C18         2.2650    2.8860   -0.2370 c         1 MOL      0.508430
     56 O9          1.2630    2.1500   -0.3320 o         1 MOL     -0.815867
     57 H25         3.9270    0.6000    1.5790 hn        1 MOL      0.267574
     58 H26         4.2670    2.3970   -0.6010 h1        1 MOL      0.081100
     59 H27         4.0320    2.9730    0.9940 h1        1 MOL      0.081100
     60 N6          2.2300    4.1860   -0.5960 n         1 MOL     -0.467993
     61 C19         1.2190    4.8480   -1.3660 c3        1 MOL      0.320567
     62 C20         1.2630    6.3750   -1.1720 c         1 MOL      0.443024
     63 O10         2.2640    6.9790   -0.7730 o         1 MOL     -0.521746
     64 C21         1.4880    4.5740   -2.8650 c3        1 MOL     -0.376437
     65 C22         1.7660    3.1220   -3.2200 c         1 MOL      0.846354
     66 O11         2.8970    2.7490   -3.5750 o         1 MOL     -0.708490
     67 O12         0.7640    2.2940   -3.1890 o         1 MOL     -0.708490
     68 H28         3.0600    4.7280   -0.4140 hn        1 MOL      0.283001
     69 H29         0.2890    4.4150   -0.9940 h1        1 MOL     -0.077395
     70 H30         2.3200    5.2330   -3.1280 hc        1 MOL      0.086037
     71 H31         0.6000    4.9420   -3.3860 hc        1 MOL      0.086037
     72 N7          0.1340    7.0300   -1.3630 n         1 MOL     -0.439943
     73 C23        -1.1800    6.3530   -1.5720 c3        1 MOL      0.038410
     74 C24        -1.7330    5.7600   -0.2890 c         1 MOL      0.608320
     75 O13        -1.1480    6.0250    0.7660 o         1 MOL     -0.532781
     76 H32         0.0940    8.0390   -1.2760 hn        1 MOL      0.320645
     77 H33        -1.0820    5.6130   -2.3660 h1        1 MOL      0.030939
     78 H34        -1.9290    7.0940   -1.8620 h1        1 MOL      0.030939
     79 N8         -2.8220    5.0370   -0.2550 n         1 MOL     -0.454437
     80 C25        -3.5140    4.5290    0.9390 c3        1 MOL     -0.291383
     81 C26        -2.8460    3.4100    1.7400 c         1 MOL      0.576206
     82 O14        -3.5090    2.7360    2.5350 o         1 MOL     -0.581832
     83 C27        -4.9820    4.2040    0.6440 c3        1 MOL      0.595196
     84 C28        -5.1790    3.1020   -0.3840 c3        1 MOL     -0.202718
     85 O15        -5.6520    5.3920    0.2760 oh        1 MOL     -0.670597
     86 H35        -3.4030    5.0560   -1.0770 hn        1 MOL      0.261725
     87 H36        -3.4650    5.3670    1.6400 h1        1 MOL      0.116634
     88 H37        -5.4590    3.8830    1.5700 h1        1 MOL     -0.074901
     89 H38        -5.2340    6.0870    0.7880 ho        1 MOL      0.392112
     90 H39        -6.2260    2.8100   -0.4290 hc        1 MOL      0.059628
     91 H40        -4.8290    3.3720   -1.3760 hc        1 MOL      0.059628
     92 H41        -4.5490    2.2770   -0.0400 hc        1 MOL      0.059628
     93 N9         -1.5230    3.1480    1.6730 n         1 MOL     -0.382332
     94 C29        -0.8880    2.1510    2.5890 c3        1 MOL      0.042062
     95 C30        -1.0090    0.7350    2.0790 c         1 MOL      0.116152
     96 O16        -0.3270    0.3300    1.1020 o         1 MOL     -0.227898
     97 C31         0.5310    2.5270    3.0060 c3        1 MOL      0.132315
     98 C32         0.7310    3.9680    3.4490 c3        1 MOL     -0.027280
     99 C33         1.0330    1.5780    4.0620 c3        1 MOL     -0.281472
    100 C34        -0.0000    4.5850    4.5750 c3        1 MOL     -0.350533
    101 H42        -1.0050    3.4910    0.8790 hn        1 MOL      0.507143
    102 H43        -1.4090    2.1680    3.5410 h1        1 MOL      0.063707
    103 H44         1.1600    2.4000    2.1310 hc        1 MOL     -0.036601
    104 H45         0.5230    4.6090    2.5840 hc        1 MOL      0.035712
    105 H46         1.7970    4.0650    3.6750 hc        1 MOL      0.035712
    106 H47         2.0770    1.8060    4.2940 hc        1 MOL      0.074829
    107 H48         0.4320    1.6620    4.9650 hc        1 MOL      0.074829
    108 H49         1.0780    0.5230    3.8120 hc        1 MOL      0.074829
    109 H50         0.1480    3.9090    5.4170 hc        1 MOL      0.090662
    110 H51         0.5200    5.5420    4.7020 hc        1 MOL      0.090662
    111 H52        -1.0580    4.7290    4.3610 hc        1 MOL      0.090662
    112 N10        -1.8320   -0.0310    2.6870 n         1 MOL     -0.033101
    113 C35        -2.1920   -1.3960    2.4950 c3        1 MOL     -0.434662
    114 C36        -3.7030   -1.6050    2.3650 c         1 MOL      0.634234
    115 O17        -4.0290   -2.7600    2.1330 o         1 MOL     -0.629890
    116 C37        -1.7010   -2.2790    3.6640 c3        1 MOL      0.406283
    117 C38        -2.0290   -1.8330    5.1210 c3        1 MOL     -0.267770
    118 O18        -0.3130   -2.0700    3.6110 oh        1 MOL     -0.595246
    119 H53        -2.2910    0.4310    3.4610 hn        1 MOL      0.221769
    120 H54        -1.6630   -1.7270    1.6080 h1        1 MOL      0.383139
    121 H55        -1.8960   -3.3400    3.5190 h1        1 MOL      0.031448
    122 H56        -0.0370   -2.1800    2.7000 ho        1 MOL      0.260162
    123 H57        -1.2060   -2.1570    5.7620 hc        1 MOL      0.059725
    124 H58        -2.0680   -0.7470    5.1820 hc        1 MOL      0.059725
    125 H59        -2.9980   -2.1940    5.4650 hc        1 MOL      0.059725
    126 N11        -4.5380   -0.6100    2.4260 n         1 MOL     -0.356956
    127 C39        -5.9630   -0.6880    2.0630 c3        1 MOL      0.032827
    128 C40        -6.1510   -1.1220    0.6470 c         1 MOL      0.408928
    129 O19        -5.6080   -0.4600   -0.2620 o         1 MOL     -0.456772
    130 C41        -6.7410    0.6850    2.2030 c3        1 MOL      0.442879
    131 C42        -8.2650    0.4810    1.7930 c3        1 MOL     -0.436475
    132 O20        -6.6690    1.1170    3.5270 oh        1 MOL     -0.629656
    133 H60        -4.0870    0.2730    2.6070 hn        1 MOL      0.212151
    134 H61        -6.5150   -1.4270    2.6480 h1        1 MOL      0.061228
    135 H62        -6.1850    1.4350    1.6490 h1        1 MOL     -0.028378
    136 H63        -6.7190    2.0650    3.4010 ho        1 MOL      0.402405
    137 H64        -8.8200   -0.1540    2.4730 hc        1 MOL      0.108313
    138 H65        -8.6540    1.4980    1.8640 hc        1 MOL      0.108313
    139 H66        -8.3180    0.2410    0.7290 hc        1 MOL      0.108313
    140 N12        -6.8180   -2.2870    0.3980 n         1 MOL     -0.403732
    141 C43        -7.1040   -2.8270   -0.9850 c3        1 MOL      0.151878
    142 C44        -5.8360   -2.9080   -1.8350 c         1 MOL      0.476752
    143 O21        -5.9060   -2.4680   -3.0070 o         1 MOL     -0.494566
    144 C45        -8.3040   -2.1030   -1.7450 c3        1 MOL     -0.142221
    145 C46        -9.6630   -2.1120   -0.9520 c3        1 MOL      0.116571
    146 C47       -10.1700   -3.4820   -0.6670 c3        1 MOL     -0.237966
    147 C48       -11.7060   -3.5480   -0.5500 c3        1 MOL      0.069656
    148 N13       -12.3430   -3.6830   -1.9110 n4        1 MOL     -0.266968
    149 H67        -7.2170   -2.7130    1.2310 hn        1 MOL      0.250378
    150 H68        -7.4000   -3.8730   -0.9210 h1        1 MOL      0.001720
    151 H69        -8.5210   -2.5880   -2.6940 hc        1 MOL      0.069723
    152 H70        -8.0290   -1.0890   -2.0320 hc        1 MOL      0.069723
    153 H71       -10.3100   -1.5320   -1.5980 hc        1 MOL     -0.010522
    154 H72        -9.5070   -1.5530   -0.0310 hc        1 MOL     -0.010522
    155 H73        -9.8060   -3.6740    0.3430 hc        1 MOL      0.102614
    156 H74        -9.8600   -4.1000   -1.5110 hc        1 MOL      0.102614
    157 H75       -12.0490   -2.6610   -0.0240 hx        1 MOL      0.071518
    158 H76       -11.9950   -4.4470   -0.0080 hx        1 MOL      0.071518
    159 H77       -11.9970   -4.4710   -2.4520 hn        1 MOL      0.230741
    160 H78       -13.3460   -3.7750   -1.8650 hn        1 MOL      0.230741
    161 H79       -12.1980   -2.8530   -2.4690 hn        1 MOL      0.230741
    162 N14        -4.6770   -3.3260   -1.3110 n         1 MOL     -0.570774
    163 C49        -3.3270   -2.8210   -1.8610 c3        1 MOL      0.120961
    164 C50        -2.1920   -2.6510   -0.8400 c         1 MOL      0.647152
    165 O22        -1.7560   -1.5450   -0.6780 o         1 MOL     -0.770995
    166 C51        -2.9460   -3.6550   -3.0750 c3        1 MOL     -0.296536
    167 C52        -1.6380   -3.2160   -3.7690 c3        1 MOL      0.279575
    168 C53        -1.7480   -1.8220   -4.2960 c         1 MOL      0.636898
    169 O23        -2.2640   -1.6980   -5.4220 o         1 MOL     -0.698327
    170 O24        -1.3230   -0.8710   -3.6210 o         1 MOL     -0.698327
    171 H80        -4.6860   -3.8090   -0.4230 hn        1 MOL      0.322482
    172 H81        -3.5580   -1.8090   -2.1980 h1        1 MOL      0.120564
    173 H82        -3.6430   -3.6940   -3.9120 hc        1 MOL      0.094464
    174 H83        -2.7640   -4.6750   -2.7700 hc        1 MOL      0.094464
    175 H84        -1.5410   -3.9790   -4.5450 hc        1 MOL     -0.101058
    176 H85        -0.7700   -3.2830   -3.1150 hc        1 MOL     -0.101058
    177 N15        -1.6150   -3.6210   -0.1130 n         1 MOL     -0.239297
    178 C54        -1.9470   -5.0120   -0.1960 c3        1 MOL     -0.273560
    179 H86        -1.1820   -5.5990    0.3130 h1        1 MOL      0.090322
    180 H87        -2.9120   -5.1850    0.2800 h1        1 MOL      0.090322
    181 H88        -1.9980   -5.3120   -1.2430 h1        1 MOL      0.090322
    182 H89        -0.8790   -3.2860    0.4980 hn        1 MOL      0.259515
    183 Ca1         0.1900    0.0450   -1.6100 Ca        1 MOL      1.706662
    184 O25         1.7000   -1.1500   -3.5100 oh        1 MOL     -0.947924
    185 H90         1.4880   -1.9560   -3.9930 ho        1 MOL      0.438078
    186 H91         2.5550   -0.8800   -3.8600 ho        1 MOL      0.438078
    187 O26        -1.8440    1.8030   -1.6470 oh        1 MOL     -0.947924
    188 H92        -1.7370    2.5220   -2.2710 ho        1 MOL      0.438078
    189 H93        -2.6430    1.3530   -1.9240 ho        1 MOL      0.438078
@<TRIPOS>BOND
     1    1    2 1   
     2    1    4 1   
     3    1    5 1   
     4    1    6 1   
     5    2    3 2   
     6    2    7 1   
     7    7    8 1   
     8    7   15 1   
     9    8    9 1   
    10    8   11 1   
    11    8   16 1   
    12    9   10 2   
    13    9   19 1   
    14   11   12 1   
    15   11   17 1   
    16   11   18 1   
    17   12   13 1   
    18   12   14 1   
    19   19   20 1   
    20   19   28 1   
    21   20   21 1   
    22   20   23 1   
    23   20   29 1   
    24   21   22 2   
    25   21   41 1   
    26   23   24 1   
    27   23   30 1   
    28   23   31 1   
    29   24   25 1   
    30   24   32 1   
    31   24   33 1   
    32   25   26 1   
    33   25   34 1   
    34   25   35 1   
    35   26   27 1   
    36   26   36 1   
    37   26   37 1   
    38   27   38 1   
    39   27   39 1   
    40   27   40 1   
    41   41   42 1   
    42   41   49 1   
    43   42   43 1   
    44   42   45 1   
    45   42   50 1   
    46   43   44 2   
    47   43   53 1   
    48   45   46 1   
    49   45   51 1   
    50   45   52 1   
    51   46   47 1   
    52   46   48 1   
    53   53   54 1   
    54   53   57 1   
    55   54   55 1   
    56   54   58 1   
    57   54   59 1   
    58   55   56 2   
    59   55   60 1   
    60   60   61 1   
    61   60   68 1   
    62   61   62 1   
    63   61   64 1   
    64   61   69 1   
    65   62   63 2   
    66   62   72 1   
    67   64   65 1   
    68   64   70 1   
    69   64   71 1   
    70   65   66 1   
    71   65   67 1   
    72   72   73 1   
    73   72   76 1   
    74   73   74 1   
    75   73   77 1   
    76   73   78 1   
    77   74   75 2   
    78   74   79 1   
    79   79   80 1   
    80   79   86 1   
    81   80   81 1   
    82   80   83 1   
    83   80   87 1   
    84   81   82 2   
    85   81   93 1   
    86   83   84 1   
    87   83   85 1   
    88   83   88 1   
    89   84   90 1   
    90   84   91 1   
    91   84   92 1   
    92   85   89 1   
    93   93   94 1   
    94   93  101 1   
    95   94   95 1   
    96   94   97 1   
    97   94  102 1   
    98   95   96 2   
    99   95  112 1   
   100   97   98 1   
   101   97   99 1   
   102   97  103 1   
   103   98  100 1   
   104   98  104 1   
   105   98  105 1   
   106   99  106 1   
   107   99  107 1   
   108   99  108 1   
   109  100  109 1   
   110  100  110 1   
   111  100  111 1   
   112  112  113 1   
   113  112  119 1   
   114  113  114 1   
   115  113  116 1   
   116  113  120 1   
   117  114  115 2   
   118  114  126 1   
   119  116  117 1   
   120  116  118 1   
   121  116  121 1   
   122  117  123 1   
   123  117  124 1   
   124  117  125 1   
   125  118  122 1   
   126  126  127 1   
   127  126  133 1   
   128  127  128 1   
   129  127  130 1   
   130  127  134 1   
   131  128  129 2   
   132  128  140 1   
   133  130  131 1   
   134  130  132 1   
   135  130  135 1   
   136  131  137 1   
   137  131  138 1   
   138  131  139 1   
   139  132  136 1   
   140  140  141 1   
   141  140  149 1   
   142  141  142 1   
   143  141  144 1   
   144  141  150 1   
   145  142  143 2   
   146  142  162 1   
   147  144  145 1   
   148  144  151 1   
   149  144  152 1   
   150  145  146 1   
   151  145  153 1   
   152  145  154 1   
   153  146  147 1   
   154  146  155 1   
   155  146  156 1   
   156  147  148 1   
   157  147  157 1   
   158  147  158 1   
   159  148  159 1   
   160  148  160 1   
   161  148  161 1   
   162  162  163 1   
   163  162  171 1   
   164  163  164 1   
   165  163  166 1   
   166  163  172 1   
   167  164  165 2   
   168  164  177 1   
   169  166  167 1   
   170  166  173 1   
   171  166  174 1   
   172  167  168 1   
   173  167  175 1   
   174  167  176 1   
   175  168  169 1   
   176  168  170 1   
   177  177  178 1   
   178  177  182 1   
   179  178  179 1   
   180  178  180 1   
   181  178  181 1   
   182  184  185 1   
   183  184  186 1   
   184  187  188 1   
   185  187  189 1   
@<TRIPOS>SUBSTRUCTURE
     1 MOL         1 TEMP              0 ****  ****    0 ROOT
