@<TRIPOS>MOLECULE
MOL
  192   187     1     0     0
SMALL
resp


@<TRIPOS>ATOM
      1 C1         10.9030    6.1690   -1.2230 c3        1 MOL     -0.582857
      2 C2         11.0570    4.7310   -0.7090 c         1 MOL      0.796514
      3 O1         11.8460    3.9590   -1.2610 o         1 MOL     -0.623084
      4 H1         11.7280    6.4040   -1.8950 hc        1 MOL      0.147553
      5 H2          9.9600    6.2640   -1.7600 hc        1 MOL      0.147553
      6 H3         10.9130    6.8600   -0.3810 hc        1 MOL      0.147553
      7 N1         10.4630    4.4490    0.4330 n         1 MOL     -0.412093
      8 C3         10.5940    3.1750    1.1910 c3        1 MOL     -0.141843
      9 C4          9.7200    2.0480    0.5740 c         1 MOL      0.449638
     10 O2          8.7570    2.3850   -0.1170 o         1 MOL     -0.649498
     11 C5         10.3060    3.3610    2.6910 c3        1 MOL      0.051655
     12 C6          8.8950    4.0340    2.9330 c         1 MOL      0.818504
     13 O3          8.1770    4.4320    2.0380 o         1 MOL     -0.730564
     14 O4          8.5960    4.2440    4.1240 o         1 MOL     -0.730564
     15 H4          9.8960    5.1670    0.8680 hn        1 MOL      0.165018
     16 H5         11.6390    2.8650    1.1870 h1        1 MOL      0.077745
     17 H6         11.0330    3.9650    3.2300 hc        1 MOL      0.003765
     18 H7         10.3250    2.3730    3.1720 hc        1 MOL      0.003765
     19 N2         10.1590    0.8210    0.8160 n         1 MOL     -0.197918
     20 C7          9.6870   -0.4180    0.2640 c3        1 MOL     -0.033509
     21 C8          8.4740   -0.8330    0.9900 c         1 MOL      0.473257
     22 O5          8.3690   -0.7290    2.2640 o         1 MOL     -0.497698
     23 C9         10.7710   -1.4810    0.4220 c3        1 MOL     -0.551033
     24 C10        11.8610   -1.2910   -0.6310 c3        1 MOL      0.185243
     25 C11        11.6760   -1.7090   -2.0800 c3        1 MOL     -0.101225
     26 C12        12.8520   -1.1780   -2.9600 c3        1 MOL      0.002440
     27 N3         12.5240   -1.4740   -4.3680 n4        1 MOL     -0.157242
     28 H8         10.9050    0.7730    1.5040 hn        1 MOL      0.264325
     29 H9          9.4010   -0.1710   -0.7570 h1        1 MOL      0.152157
     30 H10        10.3930   -2.4670    0.1610 hc        1 MOL      0.209429
     31 H11        11.2030   -1.4210    1.4110 hc        1 MOL      0.209429
     32 H12        12.7170   -1.8290   -0.2440 hc        1 MOL     -0.004501
     33 H13        12.1820   -0.2490   -0.5610 hc        1 MOL     -0.004501
     34 H14        10.7330   -1.3460   -2.4860 hc        1 MOL      0.041485
     35 H15        11.5900   -2.7970   -2.1270 hc        1 MOL      0.041485
     36 H16        13.8040   -1.6440   -2.6720 hx        1 MOL      0.088096
     37 H17        12.9240   -0.1120   -2.7600 hx        1 MOL      0.088096
     38 H18        12.3250   -2.4590   -4.4410 hn        1 MOL      0.221517
     39 H19        11.5800   -1.1830   -4.6070 hn        1 MOL      0.221517
     40 H20        13.3070   -1.2480   -4.9650 hn        1 MOL      0.221517
     41 N4          7.5300   -1.2380    0.1690 n         1 MOL     -0.511694
     42 C13         6.1670   -1.6960    0.5070 c3        1 MOL      0.467373
     43 C14         5.8260   -3.0370   -0.2840 c         1 MOL      0.330585
     44 O6          6.1570   -3.2740   -1.4730 o         1 MOL     -0.543709
     45 C15         5.0890   -0.6090    0.2160 c3        1 MOL     -0.216511
     46 C16         5.5200    0.8490    0.1700 c         1 MOL      0.769882
     47 O7          5.9010    1.4300    1.1920 o         1 MOL     -0.732512
     48 O8          5.5190    1.4530   -0.9270 o         1 MOL     -0.732512
     49 H21         7.7170   -1.0740   -0.8210 hn        1 MOL      0.231525
     50 H22         6.2110   -1.9100    1.5770 h1        1 MOL     -0.014073
     51 H23         4.2770   -0.7760    0.9290 hc        1 MOL      0.026830
     52 H24         4.6900   -0.8820   -0.7620 hc        1 MOL      0.026830
     53 N5          5.0590   -3.9620    0.3070 n         1 MOL     -0.313213
     54 C17         4.3770   -3.9180    1.6280 c3        1 MOL     -0.322121
     55 C18         3.2540   -4.9240    1.7250 c         1 MOL      0.678365
     56 O9          2.9210   -5.6000    0.7360 o         1 MOL     -0.558396
     57 H25         4.6920   -4.6570   -0.3420 hn        1 MOL      0.271462
     58 H26         3.8900   -2.9390    1.6670 h1        1 MOL      0.161917
     59 H27         5.0970   -4.0470    2.4200 h1        1 MOL      0.161917
     60 N6          2.5120   -4.9520    2.8480 n         1 MOL     -0.492290
     61 C19         1.2400   -5.6470    2.9310 c3        1 MOL     -0.038195
     62 C20         0.1690   -4.9980    2.0730 c         1 MOL      0.590405
     63 O10        -0.0610   -3.8170    2.2180 o         1 MOL     -0.495846
     64 C21         0.8100   -5.6940    4.3520 c3        1 MOL     -0.284093
     65 C22        -0.6120   -6.2060    4.4160 c         1 MOL      0.762973
     66 O11        -1.5410   -5.4770    4.8220 o         1 MOL     -0.660361
     67 O12        -0.7760   -7.4270    4.1880 o         1 MOL     -0.660361
     68 H28         2.7050   -4.2790    3.5730 hn        1 MOL      0.305074
     69 H29         1.3880   -6.6800    2.6300 h1        1 MOL      0.080604
     70 H30         0.9050   -4.7010    4.7950 hc        1 MOL      0.089137
     71 H31         1.3410   -6.3580    5.0270 hc        1 MOL      0.089137
     72 N7         -0.3140   -5.7300    1.0760 n         1 MOL     -0.432047
     73 C23        -1.2560   -5.2740    0.0210 c3        1 MOL     -0.016252
     74 C24        -0.7420   -4.1470   -0.9300 c         1 MOL      0.562881
     75 O13        -1.6330   -3.5550   -1.5190 o         1 MOL     -0.581186
     76 H32        -0.0090   -6.6960    0.9970 hn        1 MOL      0.274442
     77 H33        -2.0270   -4.8000    0.6340 h1        1 MOL      0.078697
     78 H34        -1.5990   -6.0280   -0.6780 h1        1 MOL      0.078697
     79 N8          0.5110   -3.7440   -0.9330 n         1 MOL     -0.460045
     80 C25         0.8910   -2.6000   -1.7940 c3        1 MOL      0.014421
     81 C26         0.3010   -1.3540   -1.1850 c         1 MOL      0.285385
     82 O14         0.4320   -1.1150    0.0610 o         1 MOL     -0.448085
     83 C27         2.3940   -2.5830   -2.1460 c3        1 MOL      0.440643
     84 C28         2.8650   -3.8150   -2.8720 c3        1 MOL     -0.367340
     85 O15         2.6910   -1.6300   -3.1270 oh        1 MOL     -0.686306
     86 H35         1.1750   -4.2100   -0.3270 hn        1 MOL      0.282740
     87 H36         0.4140   -2.7650   -2.7560 h1        1 MOL      0.110863
     88 H37         3.0270   -2.3330   -1.2990 h1        1 MOL      0.035373
     89 H38         3.6390   -1.5050   -3.1140 ho        1 MOL      0.422671
     90 H39         2.0510   -4.1320   -3.5230 hc        1 MOL      0.087176
     91 H40         3.7860   -3.6040   -3.4170 hc        1 MOL      0.087176
     92 H41         3.0520   -4.6130   -2.1580 hc        1 MOL      0.087176
     93 N9         -0.3890   -0.5010   -1.9710 n         1 MOL     -0.272584
     94 C29        -1.1980    0.6690   -1.3500 c3        1 MOL      0.021098
     95 C30        -2.4660    0.1460   -0.6730 c         1 MOL      0.456366
     96 O16        -2.7280    0.5430    0.4750 o         1 MOL     -0.500930
     97 C31        -1.4070    1.8800   -2.2550 c3        1 MOL      0.214137
     98 C32        -0.1630    2.2440   -3.1120 c3        1 MOL     -0.229885
     99 C33        -1.9000    3.1660   -1.5210 c3        1 MOL     -0.292894
    100 C34         1.1040    2.4100   -2.2780 c3        1 MOL      0.053512
    101 H42        -0.3960   -0.6980   -2.9600 hn        1 MOL      0.252842
    102 H43        -0.5870    1.0480   -0.5410 h1        1 MOL      0.097190
    103 H44        -2.2050    1.6380   -2.9750 hc        1 MOL     -0.019363
    104 H45        -0.2210    3.2560   -3.5050 hc        1 MOL      0.050793
    105 H46         0.0080    1.4250   -3.8110 hc        1 MOL      0.050793
    106 H47        -2.0850    3.8900   -2.3110 hc        1 MOL      0.080879
    107 H48        -2.7280    2.9750   -0.8310 hc        1 MOL      0.080879
    108 H49        -1.0530    3.5620   -0.9620 hc        1 MOL      0.080879
    109 H50         1.0530    3.1860   -1.5250 hc        1 MOL     -0.003406
    110 H51         1.3160    1.4890   -1.7500 hc        1 MOL     -0.003406
    111 H52         1.9390    2.4900   -2.9830 hc        1 MOL     -0.003406
    112 N10        -3.3140   -0.6800   -1.3640 n         1 MOL     -0.432748
    113 C35        -4.5770   -1.2070   -0.7620 c3        1 MOL     -0.042961
    114 C36        -5.6980   -1.4150   -1.8190 c         1 MOL      0.629120
    115 O17        -5.4440   -1.6810   -2.9950 o         1 MOL     -0.527170
    116 C37        -4.4470   -2.6140   -0.0530 c3        1 MOL      0.571849
    117 C38        -3.4410   -2.5550    1.1160 c3        1 MOL     -0.613348
    118 O18        -5.6170   -3.2230    0.3890 oh        1 MOL     -0.711779
    119 H53        -2.9990   -0.9470   -2.2970 hn        1 MOL      0.261772
    120 H54        -4.8710   -0.5830    0.0820 h1        1 MOL      0.098724
    121 H55        -4.0600   -3.3010   -0.8120 h1        1 MOL     -0.066510
    122 H56        -5.3810   -3.9490    0.9700 ho        1 MOL      0.410826
    123 H57        -3.5540   -1.6170    1.6500 hc        1 MOL      0.188091
    124 H58        -3.5680   -3.4350    1.7560 hc        1 MOL      0.188091
    125 H59        -2.4620   -2.6070    0.6390 hc        1 MOL      0.188091
    126 N11        -6.9670   -1.2060   -1.4710 n         1 MOL     -0.636043
    127 C39        -8.1150   -1.6300   -2.2730 c3        1 MOL      0.142833
    128 C40        -9.1980   -0.5310   -2.1830 c         1 MOL      0.587275
    129 O19        -9.8070   -0.2010   -3.2330 o         1 MOL     -0.585521
    130 C41        -8.6520   -3.0300   -1.8350 c3        1 MOL      0.333068
    131 C42       -10.0700   -3.4090   -2.2850 c3        1 MOL     -0.255940
    132 O20        -8.7260   -2.9770   -0.4050 oh        1 MOL     -0.666264
    133 H60        -7.1300   -0.9160   -0.5150 hn        1 MOL      0.290220
    134 H61        -7.9060   -1.7940   -3.3310 h1        1 MOL      0.045376
    135 H62        -7.8300   -3.7030   -2.0580 h1        1 MOL      0.012937
    136 H63        -7.8270   -2.8480   -0.0950 ho        1 MOL      0.413325
    137 H64       -10.8080   -3.0480   -1.5630 hc        1 MOL      0.065168
    138 H65       -10.2080   -2.9520   -3.2580 hc        1 MOL      0.065168
    139 H66       -10.1690   -4.4910   -2.4440 hc        1 MOL      0.065168
    140 N12        -9.4020   -0.0470   -0.9760 n         1 MOL     -0.410290
    141 C43       -10.3990    0.9530   -0.5740 c3        1 MOL     -0.048763
    142 C44        -9.7170    1.8330    0.5420 c         1 MOL      0.582532
    143 O21        -9.0430    1.2630    1.4060 o         1 MOL     -0.494513
    144 C45       -11.6620    0.3260   -0.0700 c3        1 MOL     -0.125702
    145 C46       -12.5440   -0.2590   -1.2040 c3        1 MOL      0.001087
    146 C47       -13.8090   -0.8730   -0.6390 c3        1 MOL     -0.160647
    147 C48       -13.4360   -2.1220    0.0760 c3        1 MOL      0.100503
    148 N13       -14.6430   -3.0380    0.1310 n4        1 MOL     -0.253162
    149 H67        -8.8400   -0.4690   -0.2470 hn        1 MOL      0.237036
    150 H68       -10.6060    1.5810   -1.4410 h1        1 MOL      0.106555
    151 H69       -12.2270    1.0010    0.5620 hc        1 MOL      0.067613
    152 H70       -11.3780   -0.4580    0.6270 hc        1 MOL      0.067613
    153 H71       -11.9710   -0.8680   -1.9100 hc        1 MOL      0.045177
    154 H72       -12.8280    0.6550   -1.7400 hc        1 MOL      0.045177
    155 H73       -14.4780   -1.0130   -1.4820 hc        1 MOL      0.068678
    156 H74       -14.2220   -0.1120    0.0310 hc        1 MOL      0.068678
    157 H75       -13.0410   -2.0150    1.0870 hx        1 MOL      0.081061
    158 H76       -12.6560   -2.5910   -0.5400 hx        1 MOL      0.081061
    159 H77       -15.4290   -2.5320    0.5190 hn        1 MOL      0.235905
    160 H78       -14.9950   -3.3950   -0.7530 hn        1 MOL      0.235905
    161 H79       -14.4320   -3.8560    0.6770 hn        1 MOL      0.235905
    162 N14        -9.9560    3.1380    0.5630 n         1 MOL     -0.497570
    163 C49        -9.5550    4.1350    1.5360 c3        1 MOL      0.180866
    164 C50        -8.0970    4.2670    1.8250 c         1 MOL      0.323653
    165 O22        -7.7590    4.0170    3.0120 o         1 MOL     -0.506854
    166 C51       -10.2220    5.4980    1.0420 c3        1 MOL     -0.041152
    167 C52        -9.9840    6.6640    2.0130 c3        1 MOL     -0.277490
    168 C53       -10.8410    7.8830    1.5960 c         1 MOL      0.717294
    169 O23       -12.0770    7.9010    1.8010 o         1 MOL     -0.656727
    170 O24       -10.2950    8.8820    1.0470 o         1 MOL     -0.656727
    171 H80       -10.5100    3.4250   -0.2350 hn        1 MOL      0.251145
    172 H81        -9.9910    3.8670    2.4960 h1        1 MOL      0.072738
    173 H82       -11.2680    5.3350    0.8250 hc        1 MOL      0.038332
    174 H83        -9.8020    5.8090    0.0840 hc        1 MOL      0.038332
    175 H84        -8.9350    6.9690    1.9760 hc        1 MOL      0.068269
    176 H85       -10.1730    6.2850    3.0140 hc        1 MOL      0.068269
    177 N15        -7.1810    4.5470    0.8840 n         1 MOL     -0.267607
    178 C54        -7.3060    4.8690   -0.5460 c3        1 MOL     -0.075911
    179 H86        -6.3250    4.8100   -1.0180 h1        1 MOL      0.064303
    180 H87        -7.9800    4.1570   -1.0220 h1        1 MOL      0.064303
    181 H88        -7.7030    5.8780   -0.6580 h1        1 MOL      0.064303
    182 H89        -6.2720    4.6580    1.3110 hn        1 MOL      0.265498
    183 Ca1         6.4440    3.7640   -0.0870 Ca        1 MOL      1.820795
    184 O25         3.7700    4.5840   -0.5160 oh        1 MOL     -0.942430
    185 H90         2.8180    4.4720   -0.4360 ho        1 MOL      0.455529
    186 H91         3.8970    5.5330   -0.5150 ho        1 MOL      0.455529
    187 O26         4.9200    4.3770    2.0230 oh        1 MOL     -0.942430
    188 H92         5.2180    4.2050    2.9210 ho        1 MOL      0.455529
    189 H93         4.0590    4.7750    2.1310 ho        1 MOL      0.455529
    190 O27         7.1250    3.7500   -2.5350 oh        1 MOL     -0.942430
    191 H94         7.2510    2.9830   -3.1050 ho        1 MOL      0.455529
    192 H95         7.3980    4.4920   -3.0770 ho        1 MOL      0.455529
@<TRIPOS>BOND
     1    1    2 1   
     2    1    4 1   
     3    1    5 1   
     4    1    6 1   
     5    2    3 2   
     6    2    7 1   
     7    7    8 1   
     8    7   15 1   
     9    8    9 1   
    10    8   11 1   
    11    8   16 1   
    12    9   10 2   
    13    9   19 1   
    14   11   12 1   
    15   11   17 1   
    16   11   18 1   
    17   12   13 1   
    18   12   14 1   
    19   19   20 1   
    20   19   28 1   
    21   20   21 1   
    22   20   23 1   
    23   20   29 1   
    24   21   22 2   
    25   21   41 1   
    26   23   24 1   
    27   23   30 1   
    28   23   31 1   
    29   24   25 1   
    30   24   32 1   
    31   24   33 1   
    32   25   26 1   
    33   25   34 1   
    34   25   35 1   
    35   26   27 1   
    36   26   36 1   
    37   26   37 1   
    38   27   38 1   
    39   27   39 1   
    40   27   40 1   
    41   41   42 1   
    42   41   49 1   
    43   42   43 1   
    44   42   45 1   
    45   42   50 1   
    46   43   44 2   
    47   43   53 1   
    48   45   46 1   
    49   45   51 1   
    50   45   52 1   
    51   46   47 1   
    52   46   48 1   
    53   53   54 1   
    54   53   57 1   
    55   54   55 1   
    56   54   58 1   
    57   54   59 1   
    58   55   56 2   
    59   55   60 1   
    60   60   61 1   
    61   60   68 1   
    62   61   62 1   
    63   61   64 1   
    64   61   69 1   
    65   62   63 2   
    66   62   72 1   
    67   64   65 1   
    68   64   70 1   
    69   64   71 1   
    70   65   66 1   
    71   65   67 1   
    72   72   73 1   
    73   72   76 1   
    74   73   74 1   
    75   73   77 1   
    76   73   78 1   
    77   74   75 2   
    78   74   79 1   
    79   79   80 1   
    80   79   86 1   
    81   80   81 1   
    82   80   83 1   
    83   80   87 1   
    84   81   82 2   
    85   81   93 1   
    86   83   84 1   
    87   83   85 1   
    88   83   88 1   
    89   84   90 1   
    90   84   91 1   
    91   84   92 1   
    92   85   89 1   
    93   93   94 1   
    94   93  101 1   
    95   94   95 1   
    96   94   97 1   
    97   94  102 1   
    98   95   96 2   
    99   95  112 1   
   100   97   98 1   
   101   97   99 1   
   102   97  103 1   
   103   98  100 1   
   104   98  104 1   
   105   98  105 1   
   106   99  106 1   
   107   99  107 1   
   108   99  108 1   
   109  100  109 1   
   110  100  110 1   
   111  100  111 1   
   112  112  113 1   
   113  112  119 1   
   114  113  114 1   
   115  113  116 1   
   116  113  120 1   
   117  114  115 2   
   118  114  126 1   
   119  116  117 1   
   120  116  118 1   
   121  116  121 1   
   122  117  123 1   
   123  117  124 1   
   124  117  125 1   
   125  118  122 1   
   126  126  127 1   
   127  126  133 1   
   128  127  128 1   
   129  127  130 1   
   130  127  134 1   
   131  128  129 2   
   132  128  140 1   
   133  130  131 1   
   134  130  132 1   
   135  130  135 1   
   136  131  137 1   
   137  131  138 1   
   138  131  139 1   
   139  132  136 1   
   140  140  141 1   
   141  140  149 1   
   142  141  142 1   
   143  141  144 1   
   144  141  150 1   
   145  142  143 2   
   146  142  162 1   
   147  144  145 1   
   148  144  151 1   
   149  144  152 1   
   150  145  146 1   
   151  145  153 1   
   152  145  154 1   
   153  146  147 1   
   154  146  155 1   
   155  146  156 1   
   156  147  148 1   
   157  147  157 1   
   158  147  158 1   
   159  148  159 1   
   160  148  160 1   
   161  148  161 1   
   162  162  163 1   
   163  162  171 1   
   164  163  164 1   
   165  163  166 1   
   166  163  172 1   
   167  164  165 2   
   168  164  177 1   
   169  166  167 1   
   170  166  173 1   
   171  166  174 1   
   172  167  168 1   
   173  167  175 1   
   174  167  176 1   
   175  168  169 1   
   176  168  170 1   
   177  177  178 1   
   178  177  182 1   
   179  178  179 1   
   180  178  180 1   
   181  178  181 1   
   182  184  185 1   
   183  184  186 1   
   184  187  188 1   
   185  187  189 1   
   186  190  191 1   
   187  190  192 1   
@<TRIPOS>SUBSTRUCTURE
     1 MOL         1 TEMP              0 ****  ****    0 ROOT
