@<TRIPOS>MOLECULE
MOL
  192   187     1     0     0
SMALL
resp


@<TRIPOS>ATOM
      1 C1          4.5400    3.9530   -3.3310 c3        1 MOL     -0.487151
      2 C2          5.3220    3.0800   -2.3470 c         1 MOL      0.675592
      3 O1          4.9060    2.7890   -1.2030 o         1 MOL     -0.547393
      4 H1          4.9060    3.7780   -4.3430 hc        1 MOL      0.134322
      5 H2          3.4810    3.7010   -3.2780 hc        1 MOL      0.134322
      6 H3          4.6770    5.0040   -3.0730 hc        1 MOL      0.134322
      7 N1          6.4940    2.5200   -2.6390 n         1 MOL     -0.470115
      8 C3          7.2150    1.4630   -1.9320 c3        1 MOL      0.099571
      9 C4          6.3570    0.2910   -1.5690 c         1 MOL      0.630602
     10 O2          5.9190    0.0740   -0.4390 o         1 MOL     -0.693064
     11 C5          8.1790    2.0020   -0.8760 c3        1 MOL     -0.079385
     12 C6          7.6220    3.1660   -0.1190 c         1 MOL      0.722596
     13 O3          6.9560    2.9340    0.9170 o         1 MOL     -0.730902
     14 O4          7.8530    4.3040   -0.5550 o         1 MOL     -0.730902
     15 H4          6.9370    2.7180   -3.5240 hn        1 MOL      0.270611
     16 H5          7.8310    1.0740   -2.7300 h1        1 MOL      0.034365
     17 H6          9.0670    2.3040   -1.4350 hc        1 MOL      0.001827
     18 H7          8.4600    1.2520   -0.1340 hc        1 MOL      0.001827
     19 N2          5.8890   -0.3540   -2.6280 n         1 MOL     -0.621230
     20 C7          5.0020   -1.5430   -2.6960 c3        1 MOL      0.159943
     21 C8          5.4380   -2.8390   -2.0090 c         1 MOL      0.338405
     22 O5          5.5560   -3.8840   -2.6300 o         1 MOL     -0.540010
     23 C9          3.5070   -1.2100   -2.4550 c3        1 MOL      0.108551
     24 C10         2.5360   -2.3160   -2.7810 c3        1 MOL     -0.130104
     25 C11         2.9940    0.0280   -3.2420 c3        1 MOL     -0.440325
     26 C12         2.5860   -2.8250   -4.2170 c3        1 MOL     -0.314706
     27 H8          6.0220    0.1480   -3.4890 hn        1 MOL      0.286984
     28 H9          5.1230   -1.7680   -3.7540 h1        1 MOL      0.074782
     29 H10         3.4030   -0.9590   -1.3980 hc        1 MOL     -0.013067
     30 H11         1.5000   -2.0160   -2.6000 hc        1 MOL      0.135115
     31 H12         2.7170   -3.2240   -2.2100 hc        1 MOL      0.135115
     32 H13         3.3970    0.1700   -4.2510 hc        1 MOL      0.100787
     33 H14         1.9100    0.0820   -3.2970 hc        1 MOL      0.100787
     34 H15         3.2160    0.9550   -2.7200 hc        1 MOL      0.100787
     35 H16         2.0460   -2.2260   -4.9400 hc        1 MOL      0.066515
     36 H17         3.5710   -3.0590   -4.6180 hc        1 MOL      0.066515
     37 H18         2.0730   -3.7880   -4.3030 hc        1 MOL      0.066515
     38 N3          5.7770   -2.7440   -0.7520 n         1 MOL     -0.005498
     39 C13         6.3710   -3.8450    0.0180 c3        1 MOL     -0.057635
     40 C14         5.4990   -5.1330    0.3700 c         1 MOL      0.509868
     41 O6          5.9560   -6.2750    0.2600 o         1 MOL     -0.566658
     42 C15         7.0410   -3.3440    1.3030 c3        1 MOL     -0.212820
     43 C16         8.2070   -2.3820    0.9860 c         1 MOL      0.724773
     44 O7          8.2990   -1.2650    1.6070 o         1 MOL     -0.702652
     45 O8          9.0480   -2.7840    0.1630 o         1 MOL     -0.702652
     46 H19         5.8970   -1.8520   -0.2850 hn        1 MOL      0.265512
     47 H20         7.1440   -4.1880   -0.6520 h1        1 MOL      0.058038
     48 H21         7.4540   -4.1900    1.8470 hc        1 MOL      0.068613
     49 H22         6.2670   -2.8510    1.8970 hc        1 MOL      0.068613
     50 N4          4.2330   -5.0440    0.9030 n         1 MOL     -0.436809
     51 C17         3.3550   -3.8480    0.9890 c3        1 MOL      0.114035
     52 C18         2.1350   -4.1660    1.8530 c         1 MOL      0.675379
     53 O9          1.7650   -5.3340    2.1560 o         1 MOL     -0.615262
     54 H23         3.8910   -5.9010    1.3220 hn        1 MOL      0.270023
     55 H24         2.9580   -3.7410   -0.0230 h1        1 MOL     -0.040818
     56 H25         3.9490   -2.9950    1.3190 h1        1 MOL     -0.040818
     57 N5          1.5560   -3.1910    2.5560 n         1 MOL     -0.321852
     58 C19         2.0210   -1.7860    2.6900 c3        1 MOL      0.070151
     59 C20         2.1930   -1.0210    1.3640 c         1 MOL      0.504079
     60 O10         3.2430   -0.5470    1.0120 o         1 MOL     -0.607776
     61 C21         3.2460   -1.7460    3.6690 c3        1 MOL     -0.564300
     62 C22         3.2530   -2.5410    5.0340 c         1 MOL      0.761362
     63 O11         2.1380   -2.6720    5.6200 o         1 MOL     -0.715466
     64 O12         4.3120   -3.0080    5.4670 o         1 MOL     -0.715466
     65 H26         0.8200   -3.5300    3.1550 hn        1 MOL      0.227757
     66 H27         1.2090   -1.2870    3.2070 h1        1 MOL      0.079292
     67 H28         3.3880   -0.7120    3.9900 hc        1 MOL      0.164445
     68 H29         4.1560   -2.0800    3.1630 hc        1 MOL      0.164445
     69 N6          1.1650   -0.7690    0.5660 n         1 MOL     -0.475524
     70 C23        -0.2160   -1.1410    0.8280 c3        1 MOL      0.071229
     71 C24        -0.6070   -2.4930    0.3070 c         1 MOL      0.526610
     72 O13         0.2240   -3.3100   -0.0510 o         1 MOL     -0.509928
     73 H30         1.2990   -0.0010   -0.0790 hn        1 MOL      0.374768
     74 H31        -0.8750   -0.3160    0.5520 h1        1 MOL      0.051163
     75 H32        -0.5500   -1.0780    1.8690 h1        1 MOL      0.051163
     76 N7         -1.9230   -2.8000    0.3550 n         1 MOL     -0.622093
     77 C25        -2.5720   -3.9790   -0.2700 c3        1 MOL      0.283366
     78 C26        -2.9930   -3.7660   -1.6920 c         1 MOL      0.385087
     79 O14        -3.0080   -4.6620   -2.5420 o         1 MOL     -0.541791
     80 C27        -3.7850   -4.3040    0.5110 c3        1 MOL     -0.064863
     81 C28        -4.5790   -5.5100    0.0280 c3        1 MOL     -0.447505
     82 C29        -5.6630   -5.7800    1.0290 c         1 MOL      0.830453
     83 N8         -6.2230   -6.9070    1.0390 n         1 MOL     -0.785101
     84 O15        -6.0390   -4.9900    1.8810 o         1 MOL     -0.636095
     85 H33        -2.5840   -2.1230    0.7220 hn        1 MOL      0.275825
     86 H34        -1.8280   -4.7780   -0.2790 h1        1 MOL      0.075442
     87 H35        -4.4170   -3.4150    0.5380 hc        1 MOL      0.054868
     88 H36        -3.4280   -4.5010    1.5150 hc        1 MOL      0.054868
     89 H37        -3.9280   -6.3820    0.0260 hc        1 MOL      0.132261
     90 H38        -5.0660   -5.3790   -0.9430 hc        1 MOL      0.132261
     91 H39        -5.9610   -7.6590    0.4190 hn        1 MOL      0.350252
     92 H40        -7.0430   -7.0010    1.6170 hn        1 MOL      0.350252
     93 N9         -3.2420   -2.4960   -2.0230 n         1 MOL     -0.160458
     94 C30        -3.7470   -2.0290   -3.3900 c3        1 MOL     -0.249638
     95 C31        -5.0260   -1.1490   -3.3530 c         1 MOL      0.567456
     96 O16        -5.4670   -0.7790   -4.4570 o         1 MOL     -0.551125
     97 C32        -2.6450   -1.2800   -4.1010 c3        1 MOL      0.252443
     98 C33        -1.5290   -2.0190   -4.8240 c3        1 MOL     -0.224688
     99 C34        -1.8540   -0.1900   -3.2970 c3        1 MOL     -0.224688
    100 H41        -2.9820   -1.9030   -1.2450 hn        1 MOL      0.151013
    101 H42        -4.0170   -2.8620   -4.0430 h1        1 MOL      0.165029
    102 H43        -3.1640   -0.7140   -4.8800 hc        1 MOL     -0.000250
    103 H44        -0.9130   -2.6030   -4.1380 hc        1 MOL      0.051530
    104 H45        -1.9110   -2.6480   -5.6330 hc        1 MOL      0.051530
    105 H46        -0.8070   -1.3420   -5.2890 hc        1 MOL      0.051530
    106 H47        -1.4130    0.4730   -4.0360 hc        1 MOL      0.051530
    107 H48        -2.6040    0.3940   -2.7820 hc        1 MOL      0.051530
    108 H49        -1.1450   -0.4690   -2.5080 hc        1 MOL      0.051530
    109 N10        -5.5850   -0.9230   -2.1860 n         1 MOL     -0.472082
    110 C35        -6.8300   -0.1390   -2.0170 c3        1 MOL      0.157122
    111 C36        -6.7380    1.1760   -1.1710 c         1 MOL      0.606234
    112 O17        -7.5830    2.0370   -1.4030 o         1 MOL     -0.572298
    113 C37        -7.9410   -1.1420   -1.4210 c3        1 MOL     -0.393305
    114 C38        -8.1710   -2.3800   -2.3320 c         1 MOL      0.669983
    115 N11        -8.3430   -2.2190   -3.6300 n         1 MOL     -0.794474
    116 O18        -8.1230   -3.5840   -1.9550 o         1 MOL     -0.576747
    117 H50        -5.2180   -1.4090   -1.3820 hn        1 MOL      0.315793
    118 H51        -7.1450    0.2210   -3.0070 h1        1 MOL      0.043503
    119 H52        -8.8920   -0.6190   -1.3300 hc        1 MOL      0.126323
    120 H53        -7.6990   -1.4970   -0.4250 hc        1 MOL      0.126323
    121 H54        -8.2800   -1.2980   -4.0500 hn        1 MOL      0.376930
    122 H55        -8.2230   -3.0520   -4.1760 hn        1 MOL      0.376930
    123 N12        -5.7860    1.3610   -0.2510 n         1 MOL     -0.520734
    124 C39        -5.6870    2.3540    0.8270 c3        1 MOL      0.294767
    125 C40        -4.3240    3.0860    0.7350 c         1 MOL      0.346038
    126 O19        -3.2980    2.4270    0.5780 o         1 MOL     -0.451023
    127 C41        -5.8340    1.7570    2.2140 c3        1 MOL     -0.108696
    128 C42        -6.9550    0.7100    2.3410 ca        1 MOL      0.032735
    129 C43        -8.2830    1.1450    2.6300 ca        1 MOL     -0.139258
    130 C44        -6.6970   -0.6690    2.2940 ca        1 MOL     -0.139258
    131 C45        -9.3320    0.2100    2.8220 ca        1 MOL     -0.257932
    132 C46        -7.7050   -1.5910    2.5760 ca        1 MOL     -0.257932
    133 C47        -9.0150   -1.1700    2.8890 ca        1 MOL      0.351208
    134 O20        -9.9640   -2.1330    3.1320 oh        1 MOL     -0.542191
    135 H56        -5.0720    0.6550   -0.1280 hn        1 MOL      0.215669
    136 H57        -6.5620    2.9990    0.6980 h1        1 MOL      0.024921
    137 H58        -5.9520    2.6560    2.8230 hc        1 MOL      0.057703
    138 H59        -4.8500    1.3370    2.4370 hc        1 MOL      0.057703
    139 H60        -8.5220    2.1930    2.5530 ha        1 MOL      0.131335
    140 H61        -5.7180   -1.0130    2.0090 ha        1 MOL      0.131335
    141 H62       -10.3520    0.4660    3.0550 ha        1 MOL      0.150306
    142 H63        -7.5550   -2.6620    2.6010 ha        1 MOL      0.150306
    143 H64        -9.5380   -2.9960    3.1700 ho        1 MOL      0.397039
    144 N13        -4.2510    4.4280    0.9050 n         1 MOL     -0.523384
    145 C48        -3.1210    5.3040    1.2140 c3        1 MOL      0.228926
    146 C49        -2.0050    5.4810    0.0820 c         1 MOL      0.474738
    147 O21        -1.3710    6.4820    0.0820 o         1 MOL     -0.508060
    148 C50        -2.4190    4.8260    2.5290 c3        1 MOL      0.028501
    149 C51        -3.4030    5.0460    3.6260 c3        1 MOL     -0.206973
    150 C52        -2.8650    5.2300    4.9990 c         1 MOL      0.703184
    151 O22        -2.4820    6.3560    5.2720 o         1 MOL     -0.734943
    152 O23        -3.0060    4.2870    5.8740 o         1 MOL     -0.734943
    153 H65        -5.1500    4.8750    0.9640 hn        1 MOL      0.281472
    154 H66        -3.4070    6.3450    1.3810 h1        1 MOL      0.020473
    155 H67        -1.4980    5.3950    2.6690 hc        1 MOL      0.040362
    156 H68        -2.0490    3.8010    2.4350 hc        1 MOL      0.040362
    157 H69        -3.9330    4.1000    3.6490 hc        1 MOL      0.020932
    158 H70        -4.0930    5.8490    3.3680 hc        1 MOL      0.020932
    159 N14        -1.8160    4.4620   -0.7940 n         1 MOL     -0.581887
    160 C53        -0.7430    4.4880   -1.8050 c3        1 MOL     -0.015062
    161 C54        -1.1820    5.4450   -2.9190 c         1 MOL      0.431832
    162 O24        -0.3510    5.6880   -3.8530 o         1 MOL     -0.541829
    163 C55        -0.3610    3.0140   -2.2030 c3        1 MOL     -0.235153
    164 C56        -0.0150    2.1000   -0.9680 c3        1 MOL      0.381460
    165 C57         1.3050    2.5690   -0.3070 c         1 MOL      0.541329
    166 O25         2.3160    1.8710   -0.5550 o         1 MOL     -0.618553
    167 O26         1.3450    3.4800    0.5450 o         1 MOL     -0.618553
    168 H71        -2.2050    3.5370   -0.6420 hn        1 MOL      0.357895
    169 H72         0.2000    4.9540   -1.5190 h1        1 MOL      0.171210
    170 H73         0.5390    3.0280   -2.8160 hc        1 MOL      0.076552
    171 H74        -1.2740    2.6140   -2.6200 hc        1 MOL      0.076552
    172 H75         0.0860    1.0750   -1.3460 hc        1 MOL     -0.166285
    173 H76        -0.8080    2.1750   -0.2260 hc        1 MOL     -0.166285
    174 N15        -2.3990    6.0420   -2.8560 n         1 MOL     -0.207994
    175 C58        -2.8800    6.9180   -3.9770 c3        1 MOL     -0.179997
    176 H77        -2.3280    6.6810   -4.8860 h1        1 MOL      0.086180
    177 H78        -3.9440    6.7450   -4.1430 h1        1 MOL      0.086180
    178 H79        -2.7180    7.9640   -3.7160 h1        1 MOL      0.086180
    179 H80        -3.0220    5.8340   -2.0880 hn        1 MOL      0.211725
    180 Ca1         4.5930    1.7550    1.0870 Ca        1 MOL      1.757206
    181 O27         5.3480    3.0530    3.3140 oh        1 MOL     -0.800581
    182 H81         5.6440    2.8290    4.1890 ho        1 MOL      0.381277
    183 H82         6.0030    3.6760    2.9930 ho        1 MOL      0.381277
    184 O28         3.8420    4.3360    1.1230 oh        1 MOL     -0.800581
    185 H83         3.9740    5.0040    0.4570 ho        1 MOL      0.381277
    186 H84         2.9050    4.1950    1.1420 ho        1 MOL      0.381277
    187 O29         2.4560    1.9980    2.6170 oh        1 MOL     -0.800581
    188 H85         1.8630    2.5860    2.1440 ho        1 MOL      0.381277
    189 H86         1.9200    1.6340    3.3210 ho        1 MOL      0.381277
    190 O30         6.1460    0.1630    2.7380 oh        1 MOL     -0.800581
    191 H87         6.4730    0.4490    3.5940 ho        1 MOL      0.381277
    192 H88         6.8880   -0.3000    2.3460 ho        1 MOL      0.381277
@<TRIPOS>BOND
     1    1    2 1   
     2    1    4 1   
     3    1    5 1   
     4    1    6 1   
     5    2    3 2   
     6    2    7 1   
     7    7    8 1   
     8    7   15 1   
     9    8    9 1   
    10    8   11 1   
    11    8   16 1   
    12    9   10 2   
    13    9   19 1   
    14   11   12 1   
    15   11   17 1   
    16   11   18 1   
    17   12   13 1   
    18   12   14 1   
    19   19   20 1   
    20   19   27 1   
    21   20   21 1   
    22   20   23 1   
    23   20   28 1   
    24   21   22 2   
    25   21   38 1   
    26   23   24 1   
    27   23   25 1   
    28   23   29 1   
    29   24   26 1   
    30   24   30 1   
    31   24   31 1   
    32   25   32 1   
    33   25   33 1   
    34   25   34 1   
    35   26   35 1   
    36   26   36 1   
    37   26   37 1   
    38   38   39 1   
    39   38   46 1   
    40   39   40 1   
    41   39   42 1   
    42   39   47 1   
    43   40   41 2   
    44   40   50 1   
    45   42   43 1   
    46   42   48 1   
    47   42   49 1   
    48   43   44 1   
    49   43   45 1   
    50   50   51 1   
    51   50   54 1   
    52   51   52 1   
    53   51   55 1   
    54   51   56 1   
    55   52   53 2   
    56   52   57 1   
    57   57   58 1   
    58   57   65 1   
    59   58   59 1   
    60   58   61 1   
    61   58   66 1   
    62   59   60 2   
    63   59   69 1   
    64   61   62 1   
    65   61   67 1   
    66   61   68 1   
    67   62   63 1   
    68   62   64 1   
    69   69   70 1   
    70   69   73 1   
    71   70   71 1   
    72   70   74 1   
    73   70   75 1   
    74   71   72 2   
    75   71   76 1   
    76   76   77 1   
    77   76   85 1   
    78   77   78 1   
    79   77   80 1   
    80   77   86 1   
    81   78   79 2   
    82   78   93 1   
    83   80   81 1   
    84   80   87 1   
    85   80   88 1   
    86   81   82 1   
    87   81   89 1   
    88   81   90 1   
    89   82   83 1   
    90   82   84 2   
    91   83   91 1   
    92   83   92 1   
    93   93   94 1   
    94   93  100 1   
    95   94   95 1   
    96   94   97 1   
    97   94  101 1   
    98   95   96 2   
    99   95  109 1   
   100   97   98 1   
   101   97   99 1   
   102   97  102 1   
   103   98  103 1   
   104   98  104 1   
   105   98  105 1   
   106   99  106 1   
   107   99  107 1   
   108   99  108 1   
   109  109  110 1   
   110  109  117 1   
   111  110  111 1   
   112  110  113 1   
   113  110  118 1   
   114  111  112 2   
   115  111  123 1   
   116  113  114 1   
   117  113  119 1   
   118  113  120 1   
   119  114  115 1   
   120  114  116 2   
   121  115  121 1   
   122  115  122 1   
   123  123  124 1   
   124  123  135 1   
   125  124  125 1   
   126  124  127 1   
   127  124  136 1   
   128  125  126 2   
   129  125  144 1   
   130  127  128 1   
   131  127  137 1   
   132  127  138 1   
   133  128  129 ar  
   134  128  130 ar  
   135  129  131 ar  
   136  129  139 1   
   137  130  132 ar  
   138  130  140 1   
   139  131  133 ar  
   140  131  141 1   
   141  132  133 ar  
   142  132  142 1   
   143  133  134 1   
   144  134  143 1   
   145  144  145 1   
   146  144  153 1   
   147  145  146 1   
   148  145  148 1   
   149  145  154 1   
   150  146  147 2   
   151  146  159 1   
   152  148  149 1   
   153  148  155 1   
   154  148  156 1   
   155  149  150 1   
   156  149  157 1   
   157  149  158 1   
   158  150  151 1   
   159  150  152 1   
   160  159  160 1   
   161  159  168 1   
   162  160  161 1   
   163  160  163 1   
   164  160  169 1   
   165  161  162 2   
   166  161  174 1   
   167  163  164 1   
   168  163  170 1   
   169  163  171 1   
   170  164  165 1   
   171  164  172 1   
   172  164  173 1   
   173  165  166 1   
   174  165  167 1   
   175  174  175 1   
   176  174  179 1   
   177  175  176 1   
   178  175  177 1   
   179  175  178 1   
   180  181  182 1   
   181  181  183 1   
   182  184  185 1   
   183  184  186 1   
   184  187  188 1   
   185  187  189 1   
   186  190  191 1   
   187  190  192 1   
@<TRIPOS>SUBSTRUCTURE
     1 MOL         1 TEMP              0 ****  ****    0 ROOT
