@<TRIPOS>MOLECULE
MOL
  201   193     1     0     0
SMALL
resp


@<TRIPOS>ATOM
      1 C1         -2.4050    3.7790    4.4580 c3        1 MOL     -0.290063
      2 C2         -3.8020    3.0700    4.2700 c         1 MOL      0.681135
      3 O1         -4.1250    2.1900    5.1000 o         1 MOL     -0.604846
      4 H1         -1.8320    3.2540    5.2220 hc        1 MOL      0.077683
      5 H2         -1.8570    3.7590    3.5160 hc        1 MOL      0.077683
      6 H3         -2.5600    4.8120    4.7670 hc        1 MOL      0.077683
      7 N1         -4.5110    3.5120    3.2490 n         1 MOL     -0.580285
      8 C3         -5.8380    2.8880    2.8700 c3        1 MOL      0.292441
      9 C4         -5.5860    1.8500    1.7720 c         1 MOL      0.304206
     10 O2         -4.4740    1.6580    1.2690 o         1 MOL     -0.516508
     11 C5         -6.8400    3.9520    2.4980 c3        1 MOL     -0.154475
     12 C6         -6.3160    5.0270    1.5800 c         1 MOL      0.775170
     13 O3         -6.6250    6.2080    1.8010 o         1 MOL     -0.733219
     14 O4         -5.4790    4.8140    0.6880 o         1 MOL     -0.733219
     15 H4         -4.2170    4.2700    2.6500 hn        1 MOL      0.343638
     16 H5         -6.2150    2.3760    3.7530 h1        1 MOL      0.031318
     17 H6         -7.1760    4.3360    3.4590 hc        1 MOL      0.027863
     18 H7         -7.6680    3.4830    1.9630 hc        1 MOL      0.027863
     19 N2         -6.6020    1.1440    1.3320 n         1 MOL     -0.371322
     20 C7         -6.4730    0.1880    0.2480 c3        1 MOL     -0.048733
     21 C8         -7.6190    0.2660   -0.7890 c         1 MOL      0.398385
     22 O5         -8.8000    0.4960   -0.4950 o         1 MOL     -0.550336
     23 C9         -6.2240   -1.2680    0.8630 c3        1 MOL      0.096656
     24 C10        -7.2430   -1.6320    1.9220 c3        1 MOL      0.029746
     25 C11        -6.8970   -2.9250    2.6430 c3        1 MOL      0.031994
     26 C12        -8.0140   -3.2800    3.6540 c3        1 MOL      0.040229
     27 N3         -9.1200   -4.0970    3.1020 n4        1 MOL     -0.368101
     28 H8         -7.4800    1.0980    1.8390 hn        1 MOL      0.266560
     29 H9         -5.5570    0.3720   -0.3310 h1        1 MOL      0.051416
     30 H10        -5.2040   -1.2980    1.2440 hc        1 MOL     -0.037747
     31 H11        -6.2750   -2.0590    0.1110 hc        1 MOL     -0.037747
     32 H12        -8.1970   -1.6900    1.4050 hc        1 MOL      0.010478
     33 H13        -7.3290   -0.8600    2.6820 hc        1 MOL      0.010478
     34 H14        -5.9060   -2.8350    3.0830 hc        1 MOL      0.026360
     35 H15        -6.8410   -3.7580    1.9490 hc        1 MOL      0.026360
     36 H16        -8.3020   -2.3450    4.1320 hx        1 MOL      0.058427
     37 H17        -7.5600   -3.8350    4.4670 hx        1 MOL      0.058427
     38 H18        -9.7970   -3.6370    2.5090 hn        1 MOL      0.318618
     39 H19        -8.8640   -4.9650    2.6560 hn        1 MOL      0.318618
     40 H20        -9.6120   -4.4350    3.9060 hn        1 MOL      0.318618
     41 N4         -7.2950    0.1920   -2.0540 n         1 MOL     -0.237911
     42 C13        -8.1680    0.1560   -3.2690 c3        1 MOL      0.047399
     43 C14        -7.5640   -0.8400   -4.2990 c         1 MOL      0.393969
     44 O6         -6.7990   -0.3720   -5.1910 o         1 MOL     -0.462429
     45 C15        -8.3390    1.5480   -3.8450 c3        1 MOL     -0.078096
     46 C16        -7.0940    2.3970   -3.9230 c         1 MOL      0.559413
     47 O7         -6.7110    2.9390   -2.8450 o         1 MOL     -0.628925
     48 O8         -6.5130    2.6250   -5.0160 o         1 MOL     -0.628925
     49 H21        -6.3390    0.0090   -2.2900 hn        1 MOL      0.227526
     50 H22        -9.1060   -0.2470   -2.9020 h1        1 MOL      0.099261
     51 H23        -9.0180    2.1620   -3.2450 hc        1 MOL      0.022055
     52 H24        -8.8990    1.4420   -4.7710 hc        1 MOL      0.022055
     53 N5         -7.8290   -2.1530   -4.2280 n         1 MOL     -0.416228
     54 C17        -8.4440   -2.9690   -3.2380 c3        1 MOL     -0.008539
     55 C18        -7.4520   -3.6370   -2.2490 c         1 MOL      0.657146
     56 O9         -7.8280   -3.8520   -1.1000 o         1 MOL     -0.620964
     57 H25        -7.4320   -2.7100   -4.9770 hn        1 MOL      0.327973
     58 H26        -9.0500   -3.7850   -3.6290 h1        1 MOL      0.052110
     59 H27        -9.1130   -2.3360   -2.6480 h1        1 MOL      0.052110
     60 N6         -6.2240   -3.8840   -2.6740 n         1 MOL     -0.585211
     61 C19        -5.1920   -4.5470   -1.8200 c3        1 MOL      0.298615
     62 C20        -3.8050   -3.8350   -1.9310 c         1 MOL      0.480675
     63 O10        -3.3820   -3.1800   -2.9280 o         1 MOL     -0.463530
     64 C21        -5.0890   -6.0400   -2.2370 c3        1 MOL     -0.039004
     65 C22        -4.6180   -6.3850   -3.7010 c         1 MOL      0.539614
     66 O11        -4.2020   -5.4780   -4.4550 o         1 MOL     -0.627130
     67 O12        -4.3800   -7.6220   -3.9010 o         1 MOL     -0.627130
     68 H28        -5.9030   -3.6050   -3.5910 hn        1 MOL      0.273119
     69 H29        -5.5020   -4.4820   -0.7720 h1        1 MOL     -0.040908
     70 H30        -6.0320   -6.5610   -2.0310 hc        1 MOL     -0.015335
     71 H31        -4.4770   -6.5430   -1.5020 hc        1 MOL     -0.015335
     72 N7         -2.9570   -4.0300   -0.8890 n         1 MOL     -0.345164
     73 C23        -1.6470   -3.4010   -0.6730 c3        1 MOL     -0.085025
     74 C24        -1.2010   -3.5430    0.7880 c         1 MOL      0.519529
     75 O13        -0.6560   -4.5690    1.1450 o         1 MOL     -0.513874
     76 H32        -3.3480   -4.4540   -0.0490 hn        1 MOL      0.231597
     77 H33        -1.6040   -2.3530   -0.9700 h1        1 MOL      0.077727
     78 H34        -0.8750   -3.8610   -1.3000 h1        1 MOL      0.077727
     79 N8         -1.4400   -2.5380    1.6690 n         1 MOL     -0.291192
     80 C25        -0.9040   -2.4060    3.0110 c3        1 MOL      0.140379
     81 C26         0.0800   -1.2750    3.2400 c         1 MOL      0.145326
     82 O14        -0.1910   -0.1450    2.8420 o         1 MOL     -0.458505
     83 C27        -2.0760   -2.2210    4.0080 c3        1 MOL      0.138437
     84 C28        -3.0320   -1.0800    3.8920 c3        1 MOL     -0.635195
     85 O15        -2.7900   -3.4560    4.0630 oh        1 MOL     -0.613195
     86 H35        -1.9710   -1.7470    1.3330 hn        1 MOL      0.243552
     87 H36        -0.4220   -3.3520    3.2610 h1        1 MOL      0.063320
     88 H37        -1.6680   -2.0510    4.9980 h1        1 MOL      0.066428
     89 H38        -3.3600   -3.4150    4.8390 ho        1 MOL      0.400947
     90 H39        -3.7710   -1.0930    4.6950 hc        1 MOL      0.211936
     91 H40        -2.4660   -0.1500    4.0280 hc        1 MOL      0.211936
     92 H41        -3.4580   -1.0430    2.8900 hc        1 MOL      0.211936
     93 N9          1.1580   -1.5770    3.9220 n         1 MOL      0.012306
     94 C29         2.1780   -0.6120    4.3350 c3        1 MOL     -0.296112
     95 C30         3.3520   -0.5440    3.3210 c         1 MOL      0.743171
     96 O16         4.1200    0.3520    3.2380 o         1 MOL     -0.565603
     97 C31         2.7320   -0.9050    5.7470 c3        1 MOL      0.143001
     98 C32         1.5150   -1.2530    6.5940 c3        1 MOL     -0.092236
     99 C33         3.6840    0.1180    6.3500 c3        1 MOL     -0.201627
    100 C34         0.3840   -0.1570    6.6570 c3        1 MOL     -0.250072
    101 H42         1.2070   -2.5220    4.2830 hn        1 MOL      0.208312
    102 H43         1.7760    0.3980    4.4030 h1        1 MOL      0.147734
    103 H44         3.3660   -1.7890    5.6820 hc        1 MOL     -0.001280
    104 H45         1.9110   -1.3450    7.6070 hc        1 MOL      0.024071
    105 H46         0.9940   -2.1710    6.3060 hc        1 MOL      0.024071
    106 H47         4.6450    0.1700    5.8600 hc        1 MOL      0.068675
    107 H48         3.1960    1.0980    6.4010 hc        1 MOL      0.068675
    108 H49         3.7350   -0.0980    7.4200 hc        1 MOL      0.068675
    109 H50         0.8000    0.6850    7.1990 hc        1 MOL      0.080853
    110 H51         0.0940    0.2620    5.6920 hc        1 MOL      0.080853
    111 H52        -0.3850   -0.5180    7.3460 hc        1 MOL      0.080853
    112 N10         3.3440   -1.6020    2.4800 n         1 MOL     -0.547303
    113 C35         4.0250   -1.4990    1.1640 c3        1 MOL      0.106385
    114 C36         5.1930   -2.5100    1.1980 c         1 MOL      0.600934
    115 O17         5.0760   -3.5640    1.8470 o         1 MOL     -0.547138
    116 C37         3.0330   -1.8230    0.0180 c3        1 MOL      0.379037
    117 C38         1.7980   -0.9360   -0.1160 c3        1 MOL     -0.351749
    118 O18         3.8130   -1.8090   -1.1380 oh        1 MOL     -0.640610
    119 H53         2.7280   -2.3970    2.5070 hn        1 MOL      0.230425
    120 H54         4.4380   -0.5020    0.9990 h1        1 MOL      0.063582
    121 H55         2.6520   -2.8310    0.1990 h1        1 MOL     -0.029666
    122 H56         3.2480   -2.0880   -1.8610 ho        1 MOL      0.411319
    123 H57         2.1060    0.0930    0.0810 hc        1 MOL      0.092633
    124 H58         1.3140   -1.1340   -1.0740 hc        1 MOL      0.092633
    125 H59         1.0480   -1.1530    0.6340 hc        1 MOL      0.092633
    126 N11         6.2890   -2.2420    0.4710 n         1 MOL     -0.668185
    127 C39         7.4890   -3.1610    0.3400 c3        1 MOL      0.088789
    128 C40         8.8530   -2.4430    0.0530 c         1 MOL      0.632043
    129 O19         9.8600   -3.0200    0.4260 o         1 MOL     -0.545240
    130 C41         7.1980   -4.2170   -0.7450 c3        1 MOL      0.491586
    131 C42         7.7840   -5.5710   -0.3250 c3        1 MOL     -0.336031
    132 O20         7.3920   -3.8950   -2.0690 oh        1 MOL     -0.715015
    133 H60         6.1690   -1.3900   -0.0570 hn        1 MOL      0.317013
    134 H61         7.6660   -3.5890    1.3250 h1        1 MOL      0.083906
    135 H62         6.1320   -4.4120   -0.8220 h1        1 MOL     -0.016894
    136 H63         6.8270   -4.3890   -2.6630 ho        1 MOL      0.432359
    137 H64         7.0440   -6.1280    0.2470 hc        1 MOL      0.070395
    138 H65         8.1050   -6.1440   -1.1950 hc        1 MOL      0.070395
    139 H66         8.7320   -5.4630    0.2140 hc        1 MOL      0.070395
    140 N12         8.7910   -1.2500   -0.5610 n         1 MOL     -0.575318
    141 C43        10.0100   -0.5120   -0.9040 c3        1 MOL     -0.026564
    142 C44         9.6750    0.9170   -1.4670 c         1 MOL      0.679737
    143 O21         8.7870    1.0620   -2.3380 o         1 MOL     -0.532683
    144 C45        10.8160   -1.2330   -2.0440 c3        1 MOL     -0.021241
    145 C46        12.2140   -0.7310   -2.2960 c3        1 MOL     -0.314792
    146 C47        12.9640   -1.5230   -3.3820 c3        1 MOL      0.206411
    147 C48        14.4870   -1.2300   -3.3060 c3        1 MOL      0.025995
    148 N13        15.2090   -2.0130   -4.3160 n4        1 MOL     -0.214697
    149 H67         7.8910   -0.8110   -0.6000 hn        1 MOL      0.344930
    150 H68        10.7410   -0.5090   -0.1020 h1        1 MOL      0.081740
    151 H69        10.2480   -1.1870   -2.9800 hc        1 MOL      0.069650
    152 H70        10.8480   -2.3010   -1.8140 hc        1 MOL      0.069650
    153 H71        12.7050   -0.9520   -1.3490 hc        1 MOL      0.088894
    154 H72        12.2510    0.2980   -2.6600 hc        1 MOL      0.088894
    155 H73        12.6200   -1.3400   -4.4050 hc        1 MOL     -0.024753
    156 H74        12.7890   -2.5870   -3.1890 hc        1 MOL     -0.024753
    157 H75        14.7630   -1.6030   -2.3230 hx        1 MOL      0.071968
    158 H76        14.6740   -0.1560   -3.2380 hx        1 MOL      0.071968
    159 H77        14.8400   -1.6970   -5.2040 hn        1 MOL      0.242329
    160 H78        16.2060   -1.9150   -4.2360 hn        1 MOL      0.242329
    161 H79        15.0340   -3.0070   -4.3530 hn        1 MOL      0.242329
    162 N14        10.3180    1.9310   -0.9260 n         1 MOL     -0.625081
    163 C49         9.8700    3.3060   -1.0890 c3        1 MOL      0.404088
    164 C50         8.4440    3.5830   -0.4230 c         1 MOL      0.272198
    165 O22         7.4510    3.8480   -1.1780 o         1 MOL     -0.492209
    166 C51        10.9640    4.3480   -0.7210 c3        1 MOL      0.002908
    167 C52        12.1880    4.3150   -1.5840 c3        1 MOL     -0.220054
    168 C53        13.2180    5.3450   -0.9780 c         1 MOL      0.617353
    169 O23        14.0120    5.0300   -0.0660 o         1 MOL     -0.631728
    170 O24        13.1240    6.5660   -1.2800 o         1 MOL     -0.631728
    171 H80        10.9040    1.6700   -0.1410 hn        1 MOL      0.296542
    172 H81         9.7700    3.5170   -2.1520 h1        1 MOL      0.009500
    173 H82        11.3910    4.0870    0.2450 hc        1 MOL      0.030624
    174 H83        10.4710    5.3170   -0.8710 hc        1 MOL      0.030624
    175 H84        11.9730    4.5300   -2.6340 hc        1 MOL      0.026084
    176 H85        12.6490    3.3290   -1.6240 hc        1 MOL      0.026084
    177 N15         8.1850    3.4780    0.9260 n         1 MOL     -0.366124
    178 C54         9.0960    3.2500    2.1090 c3        1 MOL     -0.078430
    179 H86         9.6050    4.1810    2.3600 h1        1 MOL      0.065508
    180 H87         8.5070    2.9170    2.9640 h1        1 MOL      0.065508
    181 H88         9.8350    2.4890    1.8580 h1        1 MOL      0.065508
    182 H89         7.2510    3.6980    1.2320 hn        1 MOL      0.312502
    183 Ca1        -5.6430    5.0130   -1.8410 Ca        1 MOL      1.725270
    184 O25        -3.5230    6.4000   -1.8750 oh        1 MOL     -0.834766
    185 H90        -2.6300    6.2380   -1.5600 ho        1 MOL      0.410930
    186 H91        -3.6260    7.3520   -1.8140 ho        1 MOL      0.410930
    187 O26        -7.1570    5.7530   -4.0040 oh        1 MOL     -0.834766
    188 H92        -7.2010    5.5020   -4.9240 ho        1 MOL      0.410930
    189 H93        -8.0560    5.9810   -3.7760 ho        1 MOL      0.410930
    190 O27        -8.0180    4.1090   -0.7530 oh        1 MOL     -0.834766
    191 H94        -8.9290    4.3190   -0.9480 ho        1 MOL      0.410930
    192 H95        -7.9560    3.1630   -0.9040 ho        1 MOL      0.410930
    193 O28        -4.3450    2.8000   -1.3490 oh        1 MOL     -0.834766
    194 H96        -4.3180    2.4260   -0.4630 ho        1 MOL      0.410930
    195 H97        -4.4990    2.0540   -1.9270 ho        1 MOL      0.410930
    196 O29        -6.6510    7.2220   -0.6360 oh        1 MOL     -0.834766
    197 H98        -6.6510    7.1310    0.3160 ho        1 MOL      0.410930
    198 H99        -7.1760    8.0000   -0.8050 ho        1 MOL      0.410930
    199 O30        -4.2960    4.4110   -4.2160 oh        1 MOL     -0.834766
    200 H100       -4.8340    3.6790   -4.5250 ho        1 MOL      0.410930
    201 H101       -3.4060    4.1890   -4.4780 ho        1 MOL      0.410930
@<TRIPOS>BOND
     1    1    2 1   
     2    1    4 1   
     3    1    5 1   
     4    1    6 1   
     5    2    3 2   
     6    2    7 1   
     7    7    8 1   
     8    7   15 1   
     9    8    9 1   
    10    8   11 1   
    11    8   16 1   
    12    9   10 2   
    13    9   19 1   
    14   11   12 1   
    15   11   17 1   
    16   11   18 1   
    17   12   13 1   
    18   12   14 1   
    19   19   20 1   
    20   19   28 1   
    21   20   21 1   
    22   20   23 1   
    23   20   29 1   
    24   21   22 2   
    25   21   41 1   
    26   23   24 1   
    27   23   30 1   
    28   23   31 1   
    29   24   25 1   
    30   24   32 1   
    31   24   33 1   
    32   25   26 1   
    33   25   34 1   
    34   25   35 1   
    35   26   27 1   
    36   26   36 1   
    37   26   37 1   
    38   27   38 1   
    39   27   39 1   
    40   27   40 1   
    41   41   42 1   
    42   41   49 1   
    43   42   43 1   
    44   42   45 1   
    45   42   50 1   
    46   43   44 2   
    47   43   53 1   
    48   45   46 1   
    49   45   51 1   
    50   45   52 1   
    51   46   47 1   
    52   46   48 1   
    53   53   54 1   
    54   53   57 1   
    55   54   55 1   
    56   54   58 1   
    57   54   59 1   
    58   55   56 2   
    59   55   60 1   
    60   60   61 1   
    61   60   68 1   
    62   61   62 1   
    63   61   64 1   
    64   61   69 1   
    65   62   63 2   
    66   62   72 1   
    67   64   65 1   
    68   64   70 1   
    69   64   71 1   
    70   65   66 1   
    71   65   67 1   
    72   72   73 1   
    73   72   76 1   
    74   73   74 1   
    75   73   77 1   
    76   73   78 1   
    77   74   75 2   
    78   74   79 1   
    79   79   80 1   
    80   79   86 1   
    81   80   81 1   
    82   80   83 1   
    83   80   87 1   
    84   81   82 2   
    85   81   93 1   
    86   83   84 1   
    87   83   85 1   
    88   83   88 1   
    89   84   90 1   
    90   84   91 1   
    91   84   92 1   
    92   85   89 1   
    93   93   94 1   
    94   93  101 1   
    95   94   95 1   
    96   94   97 1   
    97   94  102 1   
    98   95   96 2   
    99   95  112 1   
   100   97   98 1   
   101   97   99 1   
   102   97  103 1   
   103   98  100 1   
   104   98  104 1   
   105   98  105 1   
   106   99  106 1   
   107   99  107 1   
   108   99  108 1   
   109  100  109 1   
   110  100  110 1   
   111  100  111 1   
   112  112  113 1   
   113  112  119 1   
   114  113  114 1   
   115  113  116 1   
   116  113  120 1   
   117  114  115 2   
   118  114  126 1   
   119  116  117 1   
   120  116  118 1   
   121  116  121 1   
   122  117  123 1   
   123  117  124 1   
   124  117  125 1   
   125  118  122 1   
   126  126  127 1   
   127  126  133 1   
   128  127  128 1   
   129  127  130 1   
   130  127  134 1   
   131  128  129 2   
   132  128  140 1   
   133  130  131 1   
   134  130  132 1   
   135  130  135 1   
   136  131  137 1   
   137  131  138 1   
   138  131  139 1   
   139  132  136 1   
   140  140  141 1   
   141  140  149 1   
   142  141  142 1   
   143  141  144 1   
   144  141  150 1   
   145  142  143 2   
   146  142  162 1   
   147  144  145 1   
   148  144  151 1   
   149  144  152 1   
   150  145  146 1   
   151  145  153 1   
   152  145  154 1   
   153  146  147 1   
   154  146  155 1   
   155  146  156 1   
   156  147  148 1   
   157  147  157 1   
   158  147  158 1   
   159  148  159 1   
   160  148  160 1   
   161  148  161 1   
   162  162  163 1   
   163  162  171 1   
   164  163  164 1   
   165  163  166 1   
   166  163  172 1   
   167  164  165 2   
   168  164  177 1   
   169  166  167 1   
   170  166  173 1   
   171  166  174 1   
   172  167  168 1   
   173  167  175 1   
   174  167  176 1   
   175  168  169 1   
   176  168  170 1   
   177  177  178 1   
   178  177  182 1   
   179  178  179 1   
   180  178  180 1   
   181  178  181 1   
   182  184  185 1   
   183  184  186 1   
   184  187  188 1   
   185  187  189 1   
   186  190  191 1   
   187  190  192 1   
   188  193  194 1   
   189  193  195 1   
   190  196  197 1   
   191  196  198 1   
   192  199  200 1   
   193  199  201 1   
@<TRIPOS>SUBSTRUCTURE
     1 MOL         1 TEMP              0 ****  ****    0 ROOT
