@<TRIPOS>MOLECULE
MOL
  192   187     1     0     0
SMALL
resp


@<TRIPOS>ATOM
      1 C1          4.5890   -1.5810   -2.4860 c3        1 MOL     -0.207224
      2 C2          3.5850   -2.4290   -1.6690 c         1 MOL      0.538121
      3 O1          2.6910   -1.8750   -0.9830 o         1 MOL     -0.436825
      4 H1          4.0500   -1.0020   -3.2360 hc        1 MOL      0.051745
      5 H2          5.1200   -0.9030   -1.8180 hc        1 MOL      0.051745
      6 H3          5.3040   -2.2390   -2.9800 hc        1 MOL      0.051745
      7 N1          3.8010   -3.7240   -1.4550 n         1 MOL     -0.429048
      8 C3          3.0910   -4.6400   -0.5830 c3        1 MOL     -0.156794
      9 C4          1.5220   -4.7800   -0.7370 c         1 MOL      0.717683
     10 O2          0.7880   -5.0570    0.2360 o         1 MOL     -0.526581
     11 C5          3.4510   -4.3200    0.9040 c3        1 MOL     -0.274737
     12 C6          4.9730   -4.0890    1.2030 c         1 MOL      1.019268
     13 O3          5.8880   -4.7160    0.6890 o         1 MOL     -0.882647
     14 O4          5.3340   -3.2470    2.0880 o         1 MOL     -0.882647
     15 H4          4.3570   -4.1970   -2.1560 hn        1 MOL      0.301111
     16 H5          3.5890   -5.5980   -0.7210 h1        1 MOL      0.105490
     17 H6          3.1520   -5.0750    1.6310 hc        1 MOL      0.090704
     18 H7          2.9200   -3.3800    1.1090 hc        1 MOL      0.090704
     19 N2          1.1060   -4.5190   -1.9710 n         1 MOL     -0.595928
     20 C7         -0.2280   -4.7190   -2.4570 c3        1 MOL     -0.126678
     21 C8         -0.9280   -5.9840   -1.9370 c         1 MOL      0.565003
     22 O5         -0.3820   -7.0580   -2.1660 o         1 MOL     -0.601768
     23 C9         -0.3480   -4.5970   -4.0110 c3        1 MOL      0.055674
     24 C10         0.4480   -5.5170   -4.9810 c3        1 MOL      0.303964
     25 C11        -0.1960   -3.1060   -4.2190 c3        1 MOL     -0.078253
     26 C12         0.0650   -5.5490   -6.4210 c3        1 MOL     -0.292663
     27 H8          1.7340   -4.2050   -2.7010 hn        1 MOL      0.274581
     28 H9         -0.7420   -3.9250   -1.9310 h1        1 MOL      0.213132
     29 H10        -1.4030   -4.7790   -4.2240 hc        1 MOL      0.025061
     30 H11         0.4050   -6.5300   -4.5860 hc        1 MOL     -0.057208
     31 H12         1.4950   -5.1870   -5.0180 hc        1 MOL     -0.057208
     32 H13        -0.9990   -2.4720   -3.8390 hc        1 MOL      0.021461
     33 H14         0.8190   -2.7290   -4.0760 hc        1 MOL      0.021461
     34 H15        -0.2320   -3.0030   -5.3090 hc        1 MOL      0.021461
     35 H16         0.4010   -4.6760   -6.9820 hc        1 MOL      0.051278
     36 H17         0.5320   -6.4480   -6.8460 hc        1 MOL      0.051278
     37 H18        -1.0060   -5.7020   -6.5050 hc        1 MOL      0.051278
     38 N3         -2.0890   -6.0120   -1.3440 n         1 MOL     -0.429882
     39 C13        -2.8940   -4.8750   -0.8360 c3        1 MOL     -0.214402
     40 C14        -3.9860   -5.3160    0.1720 c         1 MOL      0.488983
     41 O6         -5.0900   -5.7870   -0.1670 o         1 MOL     -0.486953
     42 C15        -3.5000   -4.0630   -2.0230 c3        1 MOL      0.022303
     43 C16        -4.5790   -3.1650   -1.5200 c         1 MOL      0.649994
     44 O7         -5.8100   -3.4260   -1.6950 o         1 MOL     -0.691060
     45 O8         -4.1670   -2.0260   -1.1520 o         1 MOL     -0.691060
     46 H19        -2.5860   -6.8850   -1.2680 hn        1 MOL      0.312355
     47 H20        -2.2750   -4.1490   -0.3080 h1        1 MOL      0.125324
     48 H21        -3.9640   -4.5960   -2.8460 hc        1 MOL     -0.004585
     49 H22        -2.7210   -3.4660   -2.4960 hc        1 MOL     -0.004585
     50 N4         -3.7130   -5.0690    1.4520 n         1 MOL     -0.298582
     51 C17        -4.7050   -5.4340    2.4980 c3        1 MOL     -0.267472
     52 C18        -5.6990   -4.3160    2.9770 c         1 MOL      0.647914
     53 O9         -6.4990   -4.5480    3.9040 o         1 MOL     -0.631939
     54 H23        -2.7730   -4.7750    1.6880 hn        1 MOL      0.295655
     55 H24        -4.1540   -5.9200    3.3020 h1        1 MOL      0.115631
     56 H25        -5.3440   -6.1920    2.0310 h1        1 MOL      0.115631
     57 N5         -5.6260   -3.0670    2.5380 n         1 MOL     -0.443153
     58 C19        -6.4400   -1.8880    3.0620 c3        1 MOL      0.137121
     59 C20        -7.4390   -1.3760    1.9510 c         1 MOL      0.346378
     60 O10        -8.5580   -0.9270    2.2480 o         1 MOL     -0.540048
     61 C21        -5.5260   -0.8090    3.7030 c3        1 MOL     -0.206181
     62 C22        -4.4680   -0.3540    2.6890 c         1 MOL      0.718493
     63 O11        -3.5190   -1.1170    2.4460 o         1 MOL     -0.693803
     64 O12        -4.8070    0.5760    1.9180 o         1 MOL     -0.693803
     65 H26        -4.9540   -2.8600    1.8160 hn        1 MOL      0.261945
     66 H27        -7.0960   -2.2060    3.8700 h1        1 MOL      0.086555
     67 H28        -5.1040   -1.1120    4.6600 hc        1 MOL      0.026513
     68 H29        -6.1960    0.0150    3.9710 hc        1 MOL      0.026513
     69 N6         -6.9920   -1.4360    0.6890 n         1 MOL     -0.095388
     70 C23        -7.6560   -0.8940   -0.4660 c3        1 MOL     -0.359577
     71 C24        -7.7820    0.6710   -0.5840 c         1 MOL      0.513324
     72 O13        -8.5460    1.3090   -1.2990 o         1 MOL     -0.600431
     73 H30        -6.1050   -1.8450    0.4600 hn        1 MOL      0.256039
     74 H31        -8.6580   -1.3250   -0.4000 h1        1 MOL      0.146753
     75 H32        -7.1940   -1.2700   -1.3820 h1        1 MOL      0.146753
     76 N7         -7.2120    1.2990    0.4390 n         1 MOL      0.057732
     77 C25        -7.0040    2.7540    0.7390 c3        1 MOL      0.069650
     78 C26        -6.6440    3.5930   -0.4890 c         1 MOL      0.406831
     79 O14        -7.0030    4.7430   -0.5200 o         1 MOL     -0.526771
     80 C27        -8.1570    3.2750    1.6650 c3        1 MOL      0.059450
     81 C28        -8.3160    2.4530    2.9490 c3        1 MOL     -0.079860
     82 C29        -8.6060    3.3650    4.1490 c         1 MOL      0.686891
     83 N8         -9.6710    4.1240    4.1030 n         1 MOL     -0.850207
     84 O15        -7.8530    3.4720    5.1070 o         1 MOL     -0.566321
     85 H33        -6.7000    0.6690    1.0340 hn        1 MOL      0.013017
     86 H34        -6.0910    2.7880    1.3310 h1        1 MOL      0.071808
     87 H35        -9.1020    3.0600    1.1520 hc        1 MOL     -0.027437
     88 H36        -8.0270    4.3330    1.8550 hc        1 MOL     -0.027437
     89 H37        -7.3440    2.0370    3.2280 hc        1 MOL      0.007908
     90 H38        -9.0650    1.6690    2.8540 hc        1 MOL      0.007908
     91 H39       -10.3170    3.9990    3.3380 hn        1 MOL      0.355036
     92 H40        -9.8150    4.9270    4.7010 hn        1 MOL      0.355036
     93 N9         -5.9100    3.0140   -1.4790 n         1 MOL     -0.235659
     94 C30        -5.4260    3.5570   -2.7540 c3        1 MOL     -0.125151
     95 C31        -3.8560    3.5050   -2.8410 c         1 MOL      0.575250
     96 O16        -3.2910    3.9410   -3.8410 o         1 MOL     -0.573046
     97 C32        -6.0510    2.8220   -4.0000 c3        1 MOL      0.183069
     98 C33        -5.7660    1.3340   -4.0110 c3        1 MOL     -0.162093
     99 C34        -7.5520    2.9160   -4.1800 c3        1 MOL     -0.162093
    100 H41        -5.6600    2.0480   -1.3140 hn        1 MOL      0.211973
    101 H42        -5.6450    4.6180   -2.8400 h1        1 MOL      0.091163
    102 H43        -5.6760    3.1010   -4.9820 hc        1 MOL     -0.013469
    103 H44        -6.2590    1.0050   -4.9300 hc        1 MOL      0.032467
    104 H45        -4.7010    1.1650   -4.1170 hc        1 MOL      0.032467
    105 H46        -6.2740    0.7900   -3.2260 hc        1 MOL      0.032467
    106 H47        -8.0910    2.4550   -3.3550 hc        1 MOL      0.032467
    107 H48        -7.9170    3.9270   -4.3580 hc        1 MOL      0.032467
    108 H49        -7.8710    2.3800   -5.0770 hc        1 MOL      0.032467
    109 N10        -3.1780    2.6230   -2.0490 n         1 MOL     -0.564133
    110 C35        -1.7640    2.1660   -2.2330 c3        1 MOL      0.533665
    111 C36        -0.8390    2.5030   -0.9860 c         1 MOL      0.390307
    112 O17        -1.4160    2.5870    0.1150 o         1 MOL     -0.483718
    113 C37        -1.7610    0.6620   -2.6910 c3        1 MOL     -0.202778
    114 C38        -0.2740    0.1850   -2.7770 c         1 MOL      0.417847
    115 N11         0.1070   -0.7140   -1.9240 n         1 MOL     -0.510356
    116 O18         0.5200    0.6480   -3.5260 o         1 MOL     -0.554783
    117 H50        -3.7010    2.0640   -1.3890 hn        1 MOL      0.219904
    118 H51        -1.4210    2.7370   -3.0980 h1        1 MOL     -0.036095
    119 H52        -2.3340    0.5030   -3.6090 hc        1 MOL      0.095470
    120 H53        -2.3810    0.1830   -1.9300 hc        1 MOL      0.095470
    121 H54        -0.5640   -1.0030   -1.2400 hn        1 MOL      0.273764
    122 H55         1.1020   -0.8950   -1.9240 hn        1 MOL      0.273764
    123 N12         0.4820    2.7980   -1.1750 n         1 MOL     -0.587789
    124 C39         1.3850    3.1230   -0.0720 c3        1 MOL      0.304912
    125 C40         2.7680    3.5840   -0.5940 c         1 MOL      0.456214
    126 O19         3.3190    3.0200   -1.5800 o         1 MOL     -0.545759
    127 C41         1.5360    1.9890    0.9530 c3        1 MOL     -0.040011
    128 C42         1.7280    2.2660    2.4440 ca        1 MOL     -0.012230
    129 C43         2.9370    2.0840    3.0710 ca        1 MOL     -0.125825
    130 C44         0.6290    2.6840    3.1660 ca        1 MOL     -0.125825
    131 C45         3.0830    2.4950    4.4590 ca        1 MOL     -0.241639
    132 C46         0.7310    3.0330    4.5370 ca        1 MOL     -0.241639
    133 C47         1.9320    2.8980    5.2030 ca        1 MOL      0.252526
    134 O20         1.9060    3.3710    6.5150 oh        1 MOL     -0.449406
    135 H56         0.9500    2.5970   -2.0510 hn        1 MOL      0.309548
    136 H57         0.9030    3.9610    0.4220 h1        1 MOL      0.023362
    137 H58         2.3880    1.4020    0.5980 hc        1 MOL      0.057884
    138 H59         0.6990    1.2910    0.8350 hc        1 MOL      0.057884
    139 H60         3.8800    1.8150    2.6190 ha        1 MOL      0.154805
    140 H61        -0.3320    2.6670    2.6610 ha        1 MOL      0.154805
    141 H62         4.0430    2.3850    4.9570 ha        1 MOL      0.140489
    142 H63        -0.1490    3.4650    4.9820 ha        1 MOL      0.140489
    143 H64         2.8270    3.5020    6.7500 ho        1 MOL      0.315017
    144 N13         3.3280    4.6230    0.0440 n         1 MOL     -0.553689
    145 C48         4.6860    5.1140   -0.2470 c3        1 MOL      0.580334
    146 C49         5.7780    4.6220    0.7600 c         1 MOL      0.188255
    147 O21         5.7850    5.0490    1.8600 o         1 MOL     -0.543823
    148 C50         4.6960    6.6590   -0.2610 c3        1 MOL     -0.016996
    149 C51         3.7460    7.2520   -1.2910 c3        1 MOL     -0.147013
    150 C52         3.6850    8.7740   -1.2760 c         1 MOL      0.704071
    151 O22         4.2920    9.4420   -2.1290 o         1 MOL     -0.693173
    152 O23         2.9170    9.3430   -0.4900 o         1 MOL     -0.693173
    153 H65         2.9220    4.9450    0.9110 hn        1 MOL      0.285782
    154 H66         4.9380    4.7870   -1.2560 h1        1 MOL     -0.072135
    155 H67         5.6380    7.0580   -0.6300 hc        1 MOL      0.002145
    156 H68         4.4730    7.0510    0.7280 hc        1 MOL      0.002145
    157 H69         2.7710    6.8510   -1.0170 hc        1 MOL      0.003005
    158 H70         4.0950    6.9070   -2.2550 hc        1 MOL      0.003005
    159 N14         6.6170    3.6440    0.5740 n         1 MOL     -0.142100
    160 C53         6.7260    2.7930   -0.6870 c3        1 MOL     -0.283378
    161 C54         7.4050    3.5290   -1.8930 c         1 MOL      0.476288
    162 O24         8.3820    4.3290   -1.7100 o         1 MOL     -0.540036
    163 C55         7.4660    1.4770   -0.2730 c3        1 MOL      0.063902
    164 C56         6.3510    0.5650    0.4240 c3        1 MOL     -0.021676
    165 C57         7.0780   -0.6750    0.9020 c         1 MOL      0.686451
    166 O25         7.5230   -0.7350    2.0690 o         1 MOL     -0.726419
    167 O26         7.1970   -1.6410    0.1640 o         1 MOL     -0.726419
    168 H71         7.3350    3.4680    1.2590 hn        1 MOL      0.267177
    169 H72         5.6980    2.4920   -0.9290 h1        1 MOL      0.154418
    170 H73         8.2700    1.7180    0.4320 hc        1 MOL     -0.004278
    171 H74         7.8130    1.0460   -1.2090 hc        1 MOL     -0.004278
    172 H75         5.4930    0.2920   -0.1940 hc        1 MOL     -0.020275
    173 H76         6.0470    1.2010    1.2550 hc        1 MOL     -0.020275
    174 N15         6.8420    3.2880   -3.1150 n         1 MOL     -0.191310
    175 C58         7.0550    3.9240   -4.3890 c3        1 MOL     -0.214326
    176 H77         6.0950    4.0780   -4.8830 h1        1 MOL      0.091888
    177 H78         7.5440    4.8870   -4.2380 h1        1 MOL      0.091888
    178 H79         7.6850    3.2900   -5.0120 h1        1 MOL      0.091888
    179 H80         6.0580    2.6560   -3.1430 hn        1 MOL      0.243018
    180 Ca1         7.8570   -3.3550    1.9510 Ca        1 MOL      1.713941
    181 O27        10.1240   -2.1710    1.2450 oh        1 MOL     -0.813174
    182 H81        10.6300   -2.4650    0.4890 ho        1 MOL      0.389841
    183 H82        10.4860   -1.3140    1.4660 ho        1 MOL      0.389841
    184 O28         6.9100   -5.2430    3.5220 oh        1 MOL     -0.813174
    185 H83         7.2710   -6.0130    3.9550 ho        1 MOL      0.389841
    186 H84         6.0080   -5.1930    3.8440 ho        1 MOL      0.389841
    187 O29         8.9480   -2.5220    4.2220 oh        1 MOL     -0.813174
    188 H85         8.2490   -2.2980    4.8280 ho        1 MOL      0.389841
    189 H86         9.7050   -2.6910    4.7820 ho        1 MOL      0.389841
    190 O30         9.6910   -5.2550    2.0920 oh        1 MOL     -0.813174
    191 H87        10.6490   -5.3120    2.0280 ho        1 MOL      0.389841
    192 H88         9.3990   -6.1640    2.0340 ho        1 MOL      0.389841
@<TRIPOS>BOND
     1    1    2 1   
     2    1    4 1   
     3    1    5 1   
     4    1    6 1   
     5    2    3 2   
     6    2    7 1   
     7    7    8 1   
     8    7   15 1   
     9    8    9 1   
    10    8   11 1   
    11    8   16 1   
    12    9   10 2   
    13    9   19 1   
    14   11   12 1   
    15   11   17 1   
    16   11   18 1   
    17   12   13 1   
    18   12   14 1   
    19   19   20 1   
    20   19   27 1   
    21   20   21 1   
    22   20   23 1   
    23   20   28 1   
    24   21   22 2   
    25   21   38 1   
    26   23   24 1   
    27   23   25 1   
    28   23   29 1   
    29   24   26 1   
    30   24   30 1   
    31   24   31 1   
    32   25   32 1   
    33   25   33 1   
    34   25   34 1   
    35   26   35 1   
    36   26   36 1   
    37   26   37 1   
    38   38   39 1   
    39   38   46 1   
    40   39   40 1   
    41   39   42 1   
    42   39   47 1   
    43   40   41 2   
    44   40   50 1   
    45   42   43 1   
    46   42   48 1   
    47   42   49 1   
    48   43   44 1   
    49   43   45 1   
    50   50   51 1   
    51   50   54 1   
    52   51   52 1   
    53   51   55 1   
    54   51   56 1   
    55   52   53 2   
    56   52   57 1   
    57   57   58 1   
    58   57   65 1   
    59   58   59 1   
    60   58   61 1   
    61   58   66 1   
    62   59   60 2   
    63   59   69 1   
    64   61   62 1   
    65   61   67 1   
    66   61   68 1   
    67   62   63 1   
    68   62   64 1   
    69   69   70 1   
    70   69   73 1   
    71   70   71 1   
    72   70   74 1   
    73   70   75 1   
    74   71   72 2   
    75   71   76 1   
    76   76   77 1   
    77   76   85 1   
    78   77   78 1   
    79   77   80 1   
    80   77   86 1   
    81   78   79 2   
    82   78   93 1   
    83   80   81 1   
    84   80   87 1   
    85   80   88 1   
    86   81   82 1   
    87   81   89 1   
    88   81   90 1   
    89   82   83 1   
    90   82   84 2   
    91   83   91 1   
    92   83   92 1   
    93   93   94 1   
    94   93  100 1   
    95   94   95 1   
    96   94   97 1   
    97   94  101 1   
    98   95   96 2   
    99   95  109 1   
   100   97   98 1   
   101   97   99 1   
   102   97  102 1   
   103   98  103 1   
   104   98  104 1   
   105   98  105 1   
   106   99  106 1   
   107   99  107 1   
   108   99  108 1   
   109  109  110 1   
   110  109  117 1   
   111  110  111 1   
   112  110  113 1   
   113  110  118 1   
   114  111  112 2   
   115  111  123 1   
   116  113  114 1   
   117  113  119 1   
   118  113  120 1   
   119  114  115 1   
   120  114  116 2   
   121  115  121 1   
   122  115  122 1   
   123  123  124 1   
   124  123  135 1   
   125  124  125 1   
   126  124  127 1   
   127  124  136 1   
   128  125  126 2   
   129  125  144 1   
   130  127  128 1   
   131  127  137 1   
   132  127  138 1   
   133  128  129 ar  
   134  128  130 ar  
   135  129  131 ar  
   136  129  139 1   
   137  130  132 ar  
   138  130  140 1   
   139  131  133 ar  
   140  131  141 1   
   141  132  133 ar  
   142  132  142 1   
   143  133  134 1   
   144  134  143 1   
   145  144  145 1   
   146  144  153 1   
   147  145  146 1   
   148  145  148 1   
   149  145  154 1   
   150  146  147 2   
   151  146  159 1   
   152  148  149 1   
   153  148  155 1   
   154  148  156 1   
   155  149  150 1   
   156  149  157 1   
   157  149  158 1   
   158  150  151 1   
   159  150  152 1   
   160  159  160 1   
   161  159  168 1   
   162  160  161 1   
   163  160  163 1   
   164  160  169 1   
   165  161  162 2   
   166  161  174 1   
   167  163  164 1   
   168  163  170 1   
   169  163  171 1   
   170  164  165 1   
   171  164  172 1   
   172  164  173 1   
   173  165  166 1   
   174  165  167 1   
   175  174  175 1   
   176  174  179 1   
   177  175  176 1   
   178  175  177 1   
   179  175  178 1   
   180  181  182 1   
   181  181  183 1   
   182  184  185 1   
   183  184  186 1   
   184  187  188 1   
   185  187  189 1   
   186  190  191 1   
   187  190  192 1   
@<TRIPOS>SUBSTRUCTURE
     1 MOL         1 TEMP              0 ****  ****    0 ROOT
