@<TRIPOS>MOLECULE
MOL
  189   185     1     0     0
SMALL
resp


@<TRIPOS>ATOM
      1 C1         12.2210    4.0390   -2.2100 c3        1 MOL     -0.346136
      2 C2         11.6380    2.9540   -1.2240 c         1 MOL      0.541357
      3 O1         11.6050    1.7280   -1.4820 o         1 MOL     -0.562322
      4 H1         11.8010    5.0150   -1.9650 hc        1 MOL      0.095898
      5 H2         13.3060    4.0770   -2.1090 hc        1 MOL      0.095898
      6 H3         11.9590    3.7780   -3.2350 hc        1 MOL      0.095898
      7 N1         11.2500    3.3300   -0.0380 n         1 MOL     -0.100097
      8 C3         10.5710    2.5050    0.9790 c3        1 MOL     -0.776620
      9 C4          9.2590    1.9310    0.3670 c         1 MOL      0.393365
     10 O2          8.4280    2.6730   -0.2510 o         1 MOL     -0.568956
     11 C5         10.2580    3.2480    2.3080 c3        1 MOL      0.197945
     12 C6          9.8140    4.7050    2.0980 c         1 MOL      0.536244
     13 O3          8.5730    4.8960    1.9140 o         1 MOL     -0.665024
     14 O4         10.7300    5.5760    2.1210 o         1 MOL     -0.665024
     15 H4         11.3110    4.3130    0.1930 hn        1 MOL      0.257845
     16 H5         11.2220    1.6620    1.2180 h1        1 MOL      0.260267
     17 H6         11.1360    3.3060    2.9420 hc        1 MOL      0.044164
     18 H7          9.4910    2.6760    2.8240 hc        1 MOL      0.044164
     19 N2          9.1080    0.5760    0.4660 n         1 MOL      0.083305
     20 C7          7.9850   -0.1630   -0.0930 c3        1 MOL     -0.153434
     21 C8          6.8670   -0.4370    0.8820 c         1 MOL      0.720532
     22 O5          7.1990   -0.5880    2.0840 o         1 MOL     -0.585348
     23 C9          8.5170   -1.4450   -0.5340 c3        1 MOL     -0.340223
     24 C10         9.5440   -1.3800   -1.7100 c3        1 MOL      0.164442
     25 C11        10.3100   -2.6910   -1.9000 c3        1 MOL     -0.130845
     26 C12        11.3470   -2.5930   -3.0370 c3        1 MOL      0.138423
     27 N3         12.2200   -3.7810   -3.0460 n4        1 MOL     -0.130451
     28 H8          9.7840   -0.0100    0.9280 hn        1 MOL      0.185426
     29 H9          7.5820    0.3360   -0.9750 h1        1 MOL      0.178841
     30 H10         7.6740   -2.0390   -0.9080 hc        1 MOL      0.106064
     31 H11         8.9240   -1.9280    0.3500 hc        1 MOL      0.106064
     32 H12        10.2910   -0.6100   -1.5560 hc        1 MOL     -0.010353
     33 H13         8.9710   -1.2700   -2.6400 hc        1 MOL     -0.010353
     34 H14         9.6140   -3.5070   -2.1090 hc        1 MOL      0.045672
     35 H15        10.8710   -2.8420   -0.9930 hc        1 MOL      0.045672
     36 H16        11.9560   -1.7040   -2.8800 hx        1 MOL      0.042428
     37 H17        10.9850   -2.4660   -4.0560 hx        1 MOL      0.042428
     38 H18        13.0280   -3.8060   -3.6530 hn        1 MOL      0.205365
     39 H19        12.5250   -3.9760   -2.1080 hn        1 MOL      0.205365
     40 H20        11.6070   -4.5420   -3.3050 hn        1 MOL      0.205365
     41 N4          5.6560   -0.3440    0.3810 n         1 MOL     -0.831297
     42 C13         4.3610   -0.2210    1.0940 c3        1 MOL      0.634869
     43 C14         3.2610   -0.4030    0.0650 c         1 MOL      0.380604
     44 O6          3.5550   -0.2890   -1.1280 o         1 MOL     -0.524121
     45 C15         4.2920    1.1920    1.7850 c3        1 MOL      0.006440
     46 C16         5.0100    2.3360    1.1050 c         1 MOL      0.738625
     47 O7          5.1000    2.4950   -0.1290 o         1 MOL     -0.800315
     48 O8          5.6030    3.2060    1.8850 o         1 MOL     -0.800315
     49 H21         5.5430   -0.1290   -0.5990 hn        1 MOL      0.354556
     50 H22         4.3310   -0.8800    1.9570 h1        1 MOL     -0.046225
     51 H23         4.6990    1.1050    2.7890 hc        1 MOL     -0.014662
     52 H24         3.2750    1.5870    1.8480 hc        1 MOL     -0.014662
     53 N5          2.0200   -0.6750    0.4710 n         1 MOL     -0.521719
     54 C17         1.4650   -0.9470    1.8150 c3        1 MOL     -0.153316
     55 C18         1.6900   -2.3460    2.3590 c         1 MOL      0.742752
     56 O9          2.4930   -3.0540    1.7310 o         1 MOL     -0.631923
     57 H25         1.4060   -0.9410   -0.2810 hn        1 MOL      0.402318
     58 H26         0.3780   -0.8590    1.7960 h1        1 MOL      0.096904
     59 H27         1.9060   -0.2740    2.5550 h1        1 MOL      0.096904
     60 N6          1.0350   -2.8140    3.4430 n         1 MOL     -0.597815
     61 C19         1.1570   -4.2050    3.8450 c3        1 MOL      0.101995
     62 C20         0.2900   -5.1270    2.9580 c         1 MOL      0.426051
     63 O10        -0.9380   -5.0260    2.8570 o         1 MOL     -0.486788
     64 C21         0.8510   -4.3910    5.3410 c3        1 MOL     -0.280981
     65 C22         0.6760   -5.8000    5.8250 c         1 MOL      0.769651
     66 O11        -0.0640   -5.9300    6.8130 o         1 MOL     -0.678198
     67 O12         1.2500   -6.7230    5.2680 o         1 MOL     -0.678198
     68 H28         0.3480   -2.2490    3.9270 hn        1 MOL      0.323873
     69 H29         2.2030   -4.5120    3.7930 h1        1 MOL      0.066416
     70 H30        -0.0700   -3.8410    5.5160 hc        1 MOL      0.075374
     71 H31         1.6200   -3.8980    5.9510 hc        1 MOL      0.075374
     72 N7          0.9220   -6.1370    2.3640 n         1 MOL     -0.104062
     73 C23         0.2950   -7.1140    1.4500 c3        1 MOL     -0.329425
     74 C24        -0.2400   -6.5570    0.1080 c         1 MOL      0.593738
     75 O13        -0.9680   -7.1890   -0.7010 o         1 MOL     -0.565481
     76 H32         1.9150   -6.2230    2.5100 hn        1 MOL      0.191082
     77 H33        -0.4860   -7.6550    1.9760 h1        1 MOL      0.151847
     78 H34         1.1200   -7.8080    1.2350 h1        1 MOL      0.151847
     79 N8          0.1500   -5.2960   -0.2120 n         1 MOL     -0.431002
     80 C25        -0.2830   -4.5060   -1.4100 c3        1 MOL      0.222553
     81 C26        -0.7930   -3.1350   -1.0580 c         1 MOL      0.322204
     82 O14        -0.8890   -2.7180    0.0920 o         1 MOL     -0.503852
     83 C27         0.8970   -4.5070   -2.3150 c3        1 MOL      0.318676
     84 C28         1.4520   -5.8860   -2.7160 c3        1 MOL     -0.453470
     85 O15         0.8080   -3.7940   -3.5260 oh        1 MOL     -0.618056
     86 H35         0.8140   -4.8090    0.3740 hn        1 MOL      0.210361
     87 H36        -1.0500   -5.0280   -1.9970 h1        1 MOL      0.048946
     88 H37         1.6180   -3.9300   -1.7350 h1        1 MOL     -0.002650
     89 H38         1.6790   -3.6750   -3.9100 ho        1 MOL      0.410045
     90 H39         0.6800   -6.6410   -2.8500 hc        1 MOL      0.117253
     91 H40         1.9920   -5.8100   -3.6680 hc        1 MOL      0.117253
     92 H41         2.1800   -6.2630   -2.0020 hc        1 MOL      0.117253
     93 N9         -0.9930   -2.2470   -2.0410 n         1 MOL     -0.094556
     94 C29        -1.5820   -0.8960   -1.9550 c3        1 MOL     -0.162806
     95 C30        -3.0820   -0.9380   -1.4530 c         1 MOL      0.600238
     96 O16        -3.5570    0.0550   -0.8570 o         1 MOL     -0.543344
     97 C31        -1.3560   -0.0370   -3.2420 c3        1 MOL      0.064949
     98 C32        -0.2040   -0.6210   -4.1210 c3        1 MOL     -0.016246
     99 C33        -1.1030    1.4430   -2.9940 c3        1 MOL     -0.213584
    100 C34         1.2210   -0.4330   -3.4960 c3        1 MOL     -0.256681
    101 H42        -0.6700   -2.6090   -2.9330 hn        1 MOL      0.143988
    102 H43        -0.9380   -0.4850   -1.1740 h1        1 MOL      0.083036
    103 H44        -2.2310   -0.1110   -3.8920 hc        1 MOL      0.024420
    104 H45        -0.1270    0.0000   -5.0080 hc        1 MOL      0.021099
    105 H46        -0.4240   -1.6240   -4.4930 hc        1 MOL      0.021099
    106 H47        -0.1070    1.6330   -2.5960 hc        1 MOL      0.073187
    107 H48        -1.1810    2.0030   -3.9260 hc        1 MOL      0.073187
    108 H49        -1.8010    1.9000   -2.2810 hc        1 MOL      0.073187
    109 H50         1.9050   -0.6770   -4.3040 hc        1 MOL      0.068041
    110 H51         1.4290    0.6110   -3.2410 hc        1 MOL      0.068041
    111 H52         1.3270   -1.1010   -2.6420 hc        1 MOL      0.068041
    112 N10        -3.7480   -2.0830   -1.6500 n         1 MOL     -0.440656
    113 C35        -5.1220   -2.2660   -1.1510 c3        1 MOL      0.035310
    114 C36        -6.2500   -2.0930   -2.2370 c         1 MOL      0.625126
    115 O17        -5.9410   -2.1710   -3.3900 o         1 MOL     -0.535633
    116 C37        -5.3040   -3.7170   -0.5130 c3        1 MOL      0.255344
    117 C38        -4.4200   -3.7710    0.7610 c3        1 MOL     -0.351086
    118 O18        -6.6070   -3.7490    0.0940 oh        1 MOL     -0.678321
    119 H53        -3.1740   -2.7530   -2.1330 hn        1 MOL      0.215665
    120 H54        -5.2770   -1.5870   -0.3100 h1        1 MOL      0.102217
    121 H55        -5.2090   -4.4410   -1.3230 h1        1 MOL      0.052653
    122 H56        -6.6950   -4.6370    0.4370 ho        1 MOL      0.422505
    123 H57        -4.7690   -3.1280    1.5620 hc        1 MOL      0.112812
    124 H58        -4.4390   -4.7780    1.1680 hc        1 MOL      0.112812
    125 H59        -3.3810   -3.4610    0.7070 hc        1 MOL      0.112812
    126 N11        -7.4330   -1.7280   -1.8320 n         1 MOL     -0.563433
    127 C39        -8.5240   -1.2550   -2.7830 c3        1 MOL      0.017183
    128 C40        -8.8850    0.2350   -2.6110 c         1 MOL      0.648486
    129 O19        -9.5420    0.7980   -3.4880 o         1 MOL     -0.558967
    130 C41        -9.7900   -2.1110   -2.6290 c3        1 MOL      0.379929
    131 C42       -10.3970   -2.2900   -1.1960 c3        1 MOL     -0.196066
    132 O20        -9.6420   -3.4320   -3.1310 oh        1 MOL     -0.617101
    133 H60        -7.6760   -1.6360   -0.8530 hn        1 MOL      0.354831
    134 H61        -8.2150   -1.3590   -3.8230 h1        1 MOL      0.076591
    135 H62       -10.5650   -1.6280   -3.2280 h1        1 MOL     -0.034064
    136 H63        -9.7130   -3.4730   -4.0910 ho        1 MOL      0.396075
    137 H64       -11.2550   -2.9560   -1.3000 hc        1 MOL      0.052676
    138 H65        -9.7350   -2.7610   -0.4730 hc        1 MOL      0.052676
    139 H66       -10.7340   -1.3570   -0.7300 hc        1 MOL      0.052676
    140 N12        -8.5720    0.7910   -1.3830 n         1 MOL     -0.576002
    141 C43        -8.9590    2.1510   -0.9020 c3        1 MOL      0.105857
    142 C44        -7.9970    2.6920    0.1650 c         1 MOL      0.585201
    143 O21        -7.4920    1.9370    0.9780 o         1 MOL     -0.489035
    144 C45       -10.4180    2.1550   -0.3840 c3        1 MOL     -0.301492
    145 C46       -10.6120    1.3070    0.9040 c3        1 MOL     -0.228227
    146 C47       -12.0590    1.3990    1.2790 c3        1 MOL      0.244248
    147 C48       -12.2240    0.7810    2.6250 c3        1 MOL     -0.158745
    148 N13       -13.6670    0.8330    2.9840 n4        1 MOL     -0.079869
    149 H67        -8.2490    0.2060   -0.6260 hn        1 MOL      0.219924
    150 H68        -8.9070    2.7630   -1.8020 h1        1 MOL      0.090808
    151 H69       -11.0410    1.7090   -1.1630 hc        1 MOL      0.109956
    152 H70       -10.6770    3.2150   -0.3120 hc        1 MOL      0.109956
    153 H71       -10.0880    1.7880    1.7290 hc        1 MOL      0.108084
    154 H72       -10.3070    0.2660    0.7930 hc        1 MOL      0.108084
    155 H73       -12.6710    0.8630    0.5510 hc        1 MOL     -0.023983
    156 H74       -12.5090    2.3920    1.2490 hc        1 MOL     -0.023983
    157 H75       -11.6660    1.4460    3.2820 hx        1 MOL      0.115607
    158 H76       -11.9180   -0.2640    2.5370 hx        1 MOL      0.115607
    159 H77       -13.8680    0.5920    3.9410 hn        1 MOL      0.208500
    160 H78       -14.0250    1.7780    2.9600 hn        1 MOL      0.208500
    161 H79       -14.2930    0.2040    2.5000 hn        1 MOL      0.208500
    162 N14        -7.9410    4.0530    0.1680 n         1 MOL     -0.369863
    163 C49        -7.2520    4.8370    1.1710 c3        1 MOL     -0.017694
    164 C50        -5.7580    4.3990    1.3360 c         1 MOL      0.416395
    165 O22        -5.3900    4.1410    2.4800 o         1 MOL     -0.514773
    166 C51        -7.4380    6.3420    0.8280 c3        1 MOL      0.013046
    167 C52        -6.8640    7.3480    1.8270 c3        1 MOL     -0.214999
    168 C53        -7.2230    8.8000    1.3830 c         1 MOL      0.699991
    169 O23        -6.3860    9.4390    0.6900 o         1 MOL     -0.653365
    170 O24        -8.3530    9.2270    1.5940 o         1 MOL     -0.653365
    171 H80        -8.4550    4.5280   -0.5500 hn        1 MOL      0.230768
    172 H81        -7.7660    4.6880    2.1180 h1        1 MOL      0.086519
    173 H82        -8.5110    6.4690    0.6660 hc        1 MOL      0.032338
    174 H83        -7.0720    6.5560   -0.1790 hc        1 MOL      0.032338
    175 H84        -5.7720    7.2970    1.9070 hc        1 MOL      0.046792
    176 H85        -7.2390    7.1910    2.8320 hc        1 MOL      0.046792
    177 N15        -4.8200    4.3840    0.3340 n         1 MOL     -0.346530
    178 C54        -5.0980    4.6510   -1.1300 c3        1 MOL      0.023336
    179 H86        -5.1060    5.7270   -1.3080 h1        1 MOL      0.033823
    180 H87        -4.3190    4.1890   -1.7380 h1        1 MOL      0.033823
    181 H88        -6.0670    4.2310   -1.4000 h1        1 MOL      0.033823
    182 H89        -3.9230    4.0620    0.6600 hn        1 MOL      0.286360
    183 Ca1         6.8220    4.7560    0.1100 Ca        1 MOL      1.672527
    184 O25         4.3750    5.0930   -1.3790 oh        1 MOL     -0.797549
    185 H90         3.4360    5.3080   -1.3700 ho        1 MOL      0.407671
    186 H91         4.4580    4.4370   -2.0730 ho        1 MOL      0.407671
    187 O26         6.9120    4.1400   -2.6840 oh        1 MOL     -0.797549
    188 H92         7.5250    3.8660   -3.3550 ho        1 MOL      0.407671
    189 H93         6.8320    5.0850   -2.8010 ho        1 MOL      0.407671
@<TRIPOS>BOND
     1    1    2 1   
     2    1    4 1   
     3    1    5 1   
     4    1    6 1   
     5    2    3 2   
     6    2    7 1   
     7    7    8 1   
     8    7   15 1   
     9    8    9 1   
    10    8   11 1   
    11    8   16 1   
    12    9   10 2   
    13    9   19 1   
    14   11   12 1   
    15   11   17 1   
    16   11   18 1   
    17   12   13 1   
    18   12   14 1   
    19   19   20 1   
    20   19   28 1   
    21   20   21 1   
    22   20   23 1   
    23   20   29 1   
    24   21   22 2   
    25   21   41 1   
    26   23   24 1   
    27   23   30 1   
    28   23   31 1   
    29   24   25 1   
    30   24   32 1   
    31   24   33 1   
    32   25   26 1   
    33   25   34 1   
    34   25   35 1   
    35   26   27 1   
    36   26   36 1   
    37   26   37 1   
    38   27   38 1   
    39   27   39 1   
    40   27   40 1   
    41   41   42 1   
    42   41   49 1   
    43   42   43 1   
    44   42   45 1   
    45   42   50 1   
    46   43   44 2   
    47   43   53 1   
    48   45   46 1   
    49   45   51 1   
    50   45   52 1   
    51   46   47 1   
    52   46   48 1   
    53   53   54 1   
    54   53   57 1   
    55   54   55 1   
    56   54   58 1   
    57   54   59 1   
    58   55   56 2   
    59   55   60 1   
    60   60   61 1   
    61   60   68 1   
    62   61   62 1   
    63   61   64 1   
    64   61   69 1   
    65   62   63 2   
    66   62   72 1   
    67   64   65 1   
    68   64   70 1   
    69   64   71 1   
    70   65   66 1   
    71   65   67 1   
    72   72   73 1   
    73   72   76 1   
    74   73   74 1   
    75   73   77 1   
    76   73   78 1   
    77   74   75 2   
    78   74   79 1   
    79   79   80 1   
    80   79   86 1   
    81   80   81 1   
    82   80   83 1   
    83   80   87 1   
    84   81   82 2   
    85   81   93 1   
    86   83   84 1   
    87   83   85 1   
    88   83   88 1   
    89   84   90 1   
    90   84   91 1   
    91   84   92 1   
    92   85   89 1   
    93   93   94 1   
    94   93  101 1   
    95   94   95 1   
    96   94   97 1   
    97   94  102 1   
    98   95   96 2   
    99   95  112 1   
   100   97   98 1   
   101   97   99 1   
   102   97  103 1   
   103   98  100 1   
   104   98  104 1   
   105   98  105 1   
   106   99  106 1   
   107   99  107 1   
   108   99  108 1   
   109  100  109 1   
   110  100  110 1   
   111  100  111 1   
   112  112  113 1   
   113  112  119 1   
   114  113  114 1   
   115  113  116 1   
   116  113  120 1   
   117  114  115 2   
   118  114  126 1   
   119  116  117 1   
   120  116  118 1   
   121  116  121 1   
   122  117  123 1   
   123  117  124 1   
   124  117  125 1   
   125  118  122 1   
   126  126  127 1   
   127  126  133 1   
   128  127  128 1   
   129  127  130 1   
   130  127  134 1   
   131  128  129 2   
   132  128  140 1   
   133  130  131 1   
   134  130  132 1   
   135  130  135 1   
   136  131  137 1   
   137  131  138 1   
   138  131  139 1   
   139  132  136 1   
   140  140  141 1   
   141  140  149 1   
   142  141  142 1   
   143  141  144 1   
   144  141  150 1   
   145  142  143 2   
   146  142  162 1   
   147  144  145 1   
   148  144  151 1   
   149  144  152 1   
   150  145  146 1   
   151  145  153 1   
   152  145  154 1   
   153  146  147 1   
   154  146  155 1   
   155  146  156 1   
   156  147  148 1   
   157  147  157 1   
   158  147  158 1   
   159  148  159 1   
   160  148  160 1   
   161  148  161 1   
   162  162  163 1   
   163  162  171 1   
   164  163  164 1   
   165  163  166 1   
   166  163  172 1   
   167  164  165 2   
   168  164  177 1   
   169  166  167 1   
   170  166  173 1   
   171  166  174 1   
   172  167  168 1   
   173  167  175 1   
   174  167  176 1   
   175  168  169 1   
   176  168  170 1   
   177  177  178 1   
   178  177  182 1   
   179  178  179 1   
   180  178  180 1   
   181  178  181 1   
   182  184  185 1   
   183  184  186 1   
   184  187  188 1   
   185  187  189 1   
@<TRIPOS>SUBSTRUCTURE
     1 MOL         1 TEMP              0 ****  ****    0 ROOT
