@<TRIPOS>MOLECULE
MOL
  181   177     1     0     0
SMALL
resp


@<TRIPOS>ATOM
      1 C1          5.7220   -5.8290    5.0340 c3        1 MOL     -0.468958
      2 C2          4.6940   -5.1020    4.1340 c         1 MOL      0.806394
      3 O1          3.5100   -5.0490    4.3810 o         1 MOL     -0.606835
      4 H1          6.2100   -6.6170    4.4610 hc        1 MOL      0.115189
      5 H2          6.4700   -5.1160    5.3810 hc        1 MOL      0.115189
      6 H3          5.2110   -6.2670    5.8910 hc        1 MOL      0.115189
      7 N1          5.1160   -4.7090    2.9590 n         1 MOL     -0.618870
      8 C3          6.4540   -4.5300    2.4150 c3        1 MOL      0.187247
      9 C4          6.4010   -4.2590    0.8900 c         1 MOL      0.459565
     10 O2          5.3250   -4.0790    0.3030 o         1 MOL     -0.414755
     11 C5          7.2470   -3.3590    3.1110 c3        1 MOL     -0.261776
     12 C6          6.4890   -2.0620    3.2020 c         1 MOL      0.764921
     13 O3          6.1470   -1.4400    2.1750 o         1 MOL     -0.714977
     14 O4          6.2050   -1.6370    4.3010 o         1 MOL     -0.714977
     15 H4          4.3520   -4.1860    2.5360 hn        1 MOL      0.332442
     16 H5          7.0570   -5.4240    2.5470 h1        1 MOL      0.034863
     17 H6          8.2090   -3.1900    2.6330 hc        1 MOL      0.042482
     18 H7          7.4840   -3.7060    4.1180 hc        1 MOL      0.042482
     19 N2          7.5770   -4.4940    0.2780 n         1 MOL     -0.611457
     20 C7          7.7450   -4.7050   -1.1910 c3        1 MOL      0.183300
     21 C8          7.3940   -3.5860   -2.1080 c         1 MOL      0.496581
     22 O5          8.0450   -3.4260   -3.1420 o         1 MOL     -0.612779
     23 C9          7.1060   -6.0600   -1.4570 c3        1 MOL     -0.296064
     24 H8          8.3030   -4.8710    0.8620 hn        1 MOL      0.346681
     25 H9          8.8150   -4.8950   -1.3010 h1        1 MOL      0.047071
     26 H10         6.0300   -5.9030   -1.4700 hc        1 MOL      0.093720
     27 H11         7.3350   -6.5320   -2.4090 hc        1 MOL      0.093720
     28 H12         7.4060   -6.7180   -0.6430 hc        1 MOL      0.093720
     29 N3          6.5540   -2.6230   -1.7400 n         1 MOL     -0.147605
     30 C10         6.0800   -1.4790   -2.4920 c3        1 MOL      0.040454
     31 C11         6.7020   -0.1760   -1.9540 c         1 MOL      0.418855
     32 O6          6.7040    0.0310   -0.7250 o         1 MOL     -0.590902
     33 C12         4.5440   -1.4000   -2.6100 c3        1 MOL      0.004118
     34 C13         3.5970   -1.5300   -1.3920 c         1 MOL      0.786900
     35 O7          2.3670   -1.7470   -1.5540 o         1 MOL     -0.691789
     36 O8          4.0760   -1.1600   -0.3360 o         1 MOL     -0.691789
     37 H13         6.0390   -2.7960   -0.8860 hn        1 MOL      0.084470
     38 H14         6.4560   -1.5530   -3.5150 h1        1 MOL      0.048695
     39 H15         4.2340   -2.1510   -3.3370 hc        1 MOL     -0.024805
     40 H16         4.2710   -0.4310   -3.0440 hc        1 MOL     -0.024805
     41 N4          6.9810    0.7550   -2.8690 n         1 MOL     -0.239368
     42 C14         7.5620    2.0730   -2.4900 c3        1 MOL     -0.149001
     43 C15         6.5960    3.0580   -1.6820 c         1 MOL      0.449631
     44 O9          6.0650    2.6140   -0.6440 o         1 MOL     -0.457444
     45 H17         6.9810    0.4970   -3.8390 hn        1 MOL      0.252138
     46 H18         7.8420    2.5960   -3.4030 h1        1 MOL      0.098565
     47 H19         8.5670    1.9420   -2.0980 h1        1 MOL      0.098565
     48 N5          6.4080    4.3410   -2.1400 n         1 MOL     -0.495663
     49 C16         5.3830    5.2870   -1.6920 c3        1 MOL      0.164570
     50 C17         3.9970    4.6160   -1.8890 c         1 MOL      0.559594
     51 O10         3.7830    4.1760   -3.0260 o         1 MOL     -0.511747
     52 C18         5.5200    6.6650   -2.3600 c3        1 MOL     -0.434685
     53 C19         4.4210    7.6590   -1.8780 c         1 MOL      0.694372
     54 N6          4.4630    8.0120   -0.5950 n         1 MOL     -0.844022
     55 O11         3.4840    7.9970   -2.5730 o         1 MOL     -0.511245
     56 H20         6.8900    4.5750   -3.0040 hn        1 MOL      0.316528
     57 H21         5.5450    5.4170   -0.6160 h1        1 MOL      0.010854
     58 H22         5.5460    6.5650   -3.4440 hc        1 MOL      0.132197
     59 H23         6.4750    7.1440   -2.1200 hc        1 MOL      0.132197
     60 H24         5.2260    7.6850   -0.0310 hn        1 MOL      0.385870
     61 H25         3.6920    8.5550   -0.2240 hn        1 MOL      0.385870
     62 N7          3.1320    4.5770   -0.9350 n         1 MOL     -0.408160
     63 C20         2.0050    3.6350   -1.0710 c3        1 MOL     -0.034278
     64 C21         2.3740    2.1410   -1.0020 c         1 MOL      0.382372
     65 O12         3.4900    1.8190   -0.5510 o         1 MOL     -0.483532
     66 H26         3.4190    4.9350   -0.0340 hn        1 MOL      0.268948
     67 H27         1.4860    3.8200   -2.0140 h1        1 MOL      0.112883
     68 H28         1.2760    3.8070   -0.2770 h1        1 MOL      0.112883
     69 N8          1.6060    1.1800   -1.5510 n         1 MOL     -0.119119
     70 C22         0.3290    1.3550   -2.1810 c3        1 MOL     -0.291592
     71 C23        -0.8600    1.4880   -1.1760 c         1 MOL      0.349376
     72 O13        -1.7590    2.3220   -1.4010 o         1 MOL     -0.508793
     73 C24        -0.0570    0.2400   -3.1150 c3        1 MOL      0.466706
     74 C25         0.8800    0.0680   -4.2880 c3        1 MOL     -0.447438
     75 O14         0.0050   -0.9550   -2.4040 oh        1 MOL     -0.596813
     76 H29         1.8870    0.2160   -1.4470 hn        1 MOL      0.230587
     77 H30         0.2480    2.2510   -2.8060 h1        1 MOL      0.114199
     78 H31        -1.0750    0.4770   -3.4190 h1        1 MOL      0.067400
     79 H32         0.9070   -1.1280   -2.1090 ho        1 MOL      0.380974
     80 H33         0.8990    0.9860   -4.8660 hc        1 MOL      0.095892
     81 H34         1.9130   -0.1390   -3.9950 hc        1 MOL      0.095892
     82 H35         0.4460   -0.7770   -4.8310 hc        1 MOL      0.095892
     83 N9         -0.7870    0.7430   -0.0850 n         1 MOL     -0.009088
     84 C26        -1.7420    0.6130    0.9680 c3        1 MOL     -0.012094
     85 C27        -1.3390    1.3900    2.2100 c         1 MOL      0.594900
     86 O15        -0.2310    1.2050    2.6640 o         1 MOL     -0.622842
     87 C28        -1.9260   -0.9430    1.2380 c3        1 MOL      0.231113
     88 C29        -0.6190   -1.6840    1.6340 c3        1 MOL      0.213885
     89 C30        -2.5130   -1.7320    0.0990 c3        1 MOL     -0.282349
     90 C31        -0.8280   -3.0950    2.0600 c3        1 MOL     -0.395753
     91 H36         0.0500    0.2110    0.1470 hn        1 MOL     -0.046930
     92 H37        -2.6860    1.0020    0.5870 h1        1 MOL      0.043420
     93 H38        -2.6620   -0.9050    2.0330 hc        1 MOL     -0.057912
     94 H39        -0.3590   -1.1940    2.5730 hc        1 MOL     -0.018281
     95 H40         0.2500   -1.6320    0.9720 hc        1 MOL     -0.018281
     96 H41        -1.8880   -1.7590   -0.7910 hc        1 MOL      0.071743
     97 H42        -2.6280   -2.7590    0.4580 hc        1 MOL      0.071743
     98 H43        -3.4600   -1.2540   -0.1320 hc        1 MOL      0.071743
     99 H44         0.0890   -3.3770    2.5790 hc        1 MOL      0.086933
    100 H45        -1.6840   -3.2220    2.7190 hc        1 MOL      0.086933
    101 H46        -0.8520   -3.8020    1.2350 hc        1 MOL      0.086933
    102 N10        -2.1550    2.2930    2.8140 n         1 MOL     -0.604823
    103 C32        -3.2570    3.0280    2.2440 c3        1 MOL      0.420227
    104 C33        -4.5480    2.1730    2.4320 c         1 MOL      0.600843
    105 O16        -4.6500    1.2880    3.3260 o         1 MOL     -0.603867
    106 C34        -3.4760    4.4320    2.8690 c3        1 MOL     -0.303722
    107 C35        -4.2720    5.4360    2.1600 c         1 MOL      0.732373
    108 O17        -4.7180    5.2180    0.9710 o         1 MOL     -0.713343
    109 O18        -4.7050    6.3960    2.8010 o         1 MOL     -0.713343
    110 H47        -1.7960    2.5760    3.7110 hn        1 MOL      0.297337
    111 H48        -3.0840    3.2100    1.1780 h1        1 MOL     -0.052851
    112 H49        -2.4960    4.9170    2.9290 hc        1 MOL      0.041624
    113 H50        -3.9360    4.2940    3.8390 hc        1 MOL      0.041624
    114 N11        -5.5540    2.5060    1.5950 n         1 MOL     -0.740539
    115 C36        -6.7760    1.7440    1.4320 c3        1 MOL      0.527230
    116 C37        -7.5610    2.1680    0.1760 c         1 MOL      0.178481
    117 O19        -7.7580    3.3640   -0.0450 o         1 MOL     -0.475023
    118 C38        -7.6860    1.8610    2.6820 c3        1 MOL     -0.204044
    119 C39        -8.8780    0.9300    2.8120 ca        1 MOL      0.025025
    120 C40       -10.0600    1.2470    2.1270 ca        1 MOL     -0.137315
    121 C41        -8.7030   -0.3470    3.3440 ca        1 MOL     -0.137315
    122 C42       -11.0740    0.3090    2.0210 ca        1 MOL     -0.125920
    123 C43        -9.7010   -1.3230    3.2980 ca        1 MOL     -0.125920
    124 C44       -11.0100   -0.9730    2.7440 ca        1 MOL     -0.159314
    125 H51        -5.5980    3.4350    1.1910 hn        1 MOL      0.382199
    126 H52        -6.4040    0.7240    1.4400 h1        1 MOL     -0.024819
    127 H53        -7.9820    2.9030    2.7880 hc        1 MOL      0.086126
    128 H54        -7.0490    1.6040    3.5320 hc        1 MOL      0.086126
    129 H55       -10.2300    2.1540    1.5700 ha        1 MOL      0.123063
    130 H56        -7.7320   -0.5370    3.7900 ha        1 MOL      0.123063
    131 H57       -11.9730    0.5120    1.4670 ha        1 MOL      0.106299
    132 H58        -9.5690   -2.2880    3.7810 ha        1 MOL      0.106299
    133 H59       -11.8600   -1.6350    2.7560 ha        1 MOL      0.116737
    134 N12        -8.0710    1.1730   -0.6030 n         1 MOL      0.052787
    135 C45        -8.0020   -0.2960   -0.4090 c3        1 MOL      0.030975
    136 C46        -6.6940   -0.8210   -0.9980 c         1 MOL      0.422000
    137 O20        -5.8120   -0.0490   -1.2770 o         1 MOL     -0.504538
    138 C47        -9.2910   -0.7560   -1.1680 c3        1 MOL     -0.102002
    139 C48        -9.5580    0.1920   -2.3050 c3        1 MOL     -0.087919
    140 C49        -8.9390    1.4710   -1.7490 c3        1 MOL      0.089550
    141 H60        -8.0710   -0.5770    0.6430 h1        1 MOL     -0.020041
    142 H61        -9.2280   -1.7900   -1.5190 hc        1 MOL      0.037497
    143 H62       -10.0630   -0.8920   -0.4060 hc        1 MOL      0.037497
    144 H63        -8.9140   -0.0780   -3.1480 hc        1 MOL      0.048106
    145 H64       -10.6040    0.2490   -2.6150 hc        1 MOL      0.048106
    146 H65        -8.4500    2.1010   -2.4840 h1        1 MOL      0.004421
    147 H66        -9.8080    2.0040   -1.3520 h1        1 MOL      0.004421
    148 N13        -6.6670   -2.1360   -1.1530 n         1 MOL     -0.259379
    149 C50        -5.6550   -2.8030   -2.0190 c3        1 MOL      0.061494
    150 C51        -4.9640   -4.1740   -1.6620 c         1 MOL      0.415430
    151 O21        -4.1370   -4.6720   -2.4340 o         1 MOL     -0.529727
    152 C52        -6.3210   -3.0670   -3.3720 c3        1 MOL      0.000047
    153 C53        -7.5870   -4.0060   -3.2390 c3        1 MOL     -0.191751
    154 C54        -7.8630   -4.8690   -4.5270 c         1 MOL      0.736243
    155 O22        -7.7020   -6.1410   -4.4860 o         1 MOL     -0.742624
    156 O23        -8.2440   -4.3110   -5.5610 o         1 MOL     -0.742624
    157 H67        -7.4970   -2.6360   -0.8780 hn        1 MOL      0.241824
    158 H68        -4.8560   -2.1050   -2.2270 h1        1 MOL      0.062211
    159 H69        -5.5900   -3.4690   -4.0810 hc        1 MOL      0.036739
    160 H70        -6.6010   -2.1360   -3.8610 hc        1 MOL      0.036739
    161 H71        -8.5220   -3.4970   -2.9980 hc        1 MOL     -0.014064
    162 H72        -7.3280   -4.7190   -2.4670 hc        1 MOL     -0.014064
    163 N14        -5.0560   -4.8700   -0.5180 n         1 MOL     -0.324202
    164 C55        -5.7460   -4.4900    0.7760 c3        1 MOL      0.019876
    165 H73        -6.0180   -3.4360    0.7460 h1        1 MOL      0.019357
    166 H74        -6.6450   -5.0940    0.9000 h1        1 MOL      0.019357
    167 H75        -5.0710   -4.6670    1.6130 h1        1 MOL      0.019357
    168 H76        -4.5220   -5.7240   -0.5000 hn        1 MOL      0.265794
    169 Ca1         5.0700    0.7410    1.1720 Ca        1 MOL      1.798943
    170 O24         5.2050    0.8430    3.8670 oh        1 MOL     -0.889816
    171 H77         5.1670   -0.1030    3.9230 ho        1 MOL      0.428991
    172 H78         5.8040    1.1110    4.5610 ho        1 MOL      0.428991
    173 O25         7.5820    1.4420    1.8270 oh        1 MOL     -0.889816
    174 H79         8.1810    1.0680    1.1870 ho        1 MOL      0.428991
    175 H80         8.1280    1.6740    2.5780 ho        1 MOL      0.428991
    176 O26         2.5600   -0.0400    1.9830 oh        1 MOL     -0.889816
    177 H81         1.7620    0.4710    2.1160 ho        1 MOL      0.428991
    178 H82         2.3230   -0.9420    2.2230 ho        1 MOL      0.428991
    179 O27         4.4890    3.1140    2.2600 oh        1 MOL     -0.889816
    180 H83         3.9950    3.9310    2.1900 ho        1 MOL      0.428991
    181 H84         4.6570    3.0260    3.1950 ho        1 MOL      0.428991
@<TRIPOS>BOND
     1    1    2 1   
     2    1    4 1   
     3    1    5 1   
     4    1    6 1   
     5    2    3 2   
     6    2    7 1   
     7    7    8 1   
     8    7   15 1   
     9    8    9 1   
    10    8   11 1   
    11    8   16 1   
    12    9   10 2   
    13    9   19 1   
    14   11   12 1   
    15   11   17 1   
    16   11   18 1   
    17   12   13 1   
    18   12   14 1   
    19   19   20 1   
    20   19   24 1   
    21   20   21 1   
    22   20   23 1   
    23   20   25 1   
    24   21   22 2   
    25   21   29 1   
    26   23   26 1   
    27   23   27 1   
    28   23   28 1   
    29   29   30 1   
    30   29   37 1   
    31   30   31 1   
    32   30   33 1   
    33   30   38 1   
    34   31   32 2   
    35   31   41 1   
    36   33   34 1   
    37   33   39 1   
    38   33   40 1   
    39   34   35 1   
    40   34   36 1   
    41   41   42 1   
    42   41   45 1   
    43   42   43 1   
    44   42   46 1   
    45   42   47 1   
    46   43   44 2   
    47   43   48 1   
    48   48   49 1   
    49   48   56 1   
    50   49   50 1   
    51   49   52 1   
    52   49   57 1   
    53   50   51 2   
    54   50   62 1   
    55   52   53 1   
    56   52   58 1   
    57   52   59 1   
    58   53   54 1   
    59   53   55 2   
    60   54   60 1   
    61   54   61 1   
    62   62   63 1   
    63   62   66 1   
    64   63   64 1   
    65   63   67 1   
    66   63   68 1   
    67   64   65 2   
    68   64   69 1   
    69   69   70 1   
    70   69   76 1   
    71   70   71 1   
    72   70   73 1   
    73   70   77 1   
    74   71   72 2   
    75   71   83 1   
    76   73   74 1   
    77   73   75 1   
    78   73   78 1   
    79   74   80 1   
    80   74   81 1   
    81   74   82 1   
    82   75   79 1   
    83   83   84 1   
    84   83   91 1   
    85   84   85 1   
    86   84   87 1   
    87   84   92 1   
    88   85   86 2   
    89   85  102 1   
    90   87   88 1   
    91   87   89 1   
    92   87   93 1   
    93   88   90 1   
    94   88   94 1   
    95   88   95 1   
    96   89   96 1   
    97   89   97 1   
    98   89   98 1   
    99   90   99 1   
   100   90  100 1   
   101   90  101 1   
   102  102  103 1   
   103  102  110 1   
   104  103  104 1   
   105  103  106 1   
   106  103  111 1   
   107  104  105 2   
   108  104  114 1   
   109  106  107 1   
   110  106  112 1   
   111  106  113 1   
   112  107  108 1   
   113  107  109 1   
   114  114  115 1   
   115  114  125 1   
   116  115  116 1   
   117  115  118 1   
   118  115  126 1   
   119  116  117 2   
   120  116  134 1   
   121  118  119 1   
   122  118  127 1   
   123  118  128 1   
   124  119  120 ar  
   125  119  121 ar  
   126  120  122 ar  
   127  120  129 1   
   128  121  123 ar  
   129  121  130 1   
   130  122  124 ar  
   131  122  131 1   
   132  123  124 ar  
   133  123  132 1   
   134  124  133 1   
   135  134  135 1   
   136  134  140 1   
   137  135  136 1   
   138  135  138 1   
   139  135  141 1   
   140  136  137 2   
   141  136  148 1   
   142  138  139 1   
   143  138  142 1   
   144  138  143 1   
   145  139  140 1   
   146  139  144 1   
   147  139  145 1   
   148  140  146 1   
   149  140  147 1   
   150  148  149 1   
   151  148  157 1   
   152  149  150 1   
   153  149  152 1   
   154  149  158 1   
   155  150  151 2   
   156  150  163 1   
   157  152  153 1   
   158  152  159 1   
   159  152  160 1   
   160  153  154 1   
   161  153  161 1   
   162  153  162 1   
   163  154  155 1   
   164  154  156 1   
   165  163  164 1   
   166  163  168 1   
   167  164  165 1   
   168  164  166 1   
   169  164  167 1   
   170  170  171 1   
   171  170  172 1   
   172  173  174 1   
   173  173  175 1   
   174  176  177 1   
   175  176  178 1   
   176  179  180 1   
   177  179  181 1   
@<TRIPOS>SUBSTRUCTURE
     1 MOL         1 TEMP              0 ****  ****    0 ROOT
