@<TRIPOS>MOLECULE
MOL
  175   173     1     0     0
SMALL
resp


@<TRIPOS>ATOM
      1 C1          1.7020    6.8100   -1.5050 c3        1 MOL     -0.379954
      2 C2          2.9720    6.1020   -1.0060 c         1 MOL      0.767181
      3 O1          3.3220    6.3400    0.1170 o         1 MOL     -0.597950
      4 H1          1.3210    7.4660   -0.7230 hc        1 MOL      0.091095
      5 H2          1.9390    7.4000   -2.3910 hc        1 MOL      0.091095
      6 H3          0.9450    6.0660   -1.7540 hc        1 MOL      0.091095
      7 N1          3.7360    5.3330   -1.7520 n         1 MOL     -0.633571
      8 C3          4.8900    4.5630   -1.2690 c3        1 MOL      0.234380
      9 C4          4.6410    3.4530   -0.2430 c         1 MOL      0.462962
     10 O2          3.6530    2.6780   -0.4440 o         1 MOL     -0.511456
     11 C5          5.5810    3.9020   -2.4710 c3        1 MOL     -0.324189
     12 C6          6.8840    3.1860   -2.1260 c         1 MOL      0.714834
     13 O3          6.9620    1.9510   -2.2590 o         1 MOL     -0.728628
     14 O4          7.8270    3.8080   -1.5900 o         1 MOL     -0.728628
     15 H4          3.4880    5.2960   -2.7290 hn        1 MOL      0.306100
     16 H5          5.6350    5.2710   -0.8940 h1        1 MOL      0.042169
     17 H6          5.8360    4.7440   -3.1200 hc        1 MOL      0.053521
     18 H7          4.9090    3.2550   -3.0300 hc        1 MOL      0.053521
     19 N2          5.5280    3.3950    0.7850 n         1 MOL     -0.500095
     20 C7          5.4870    2.5300    1.9420 c3        1 MOL      0.597184
     21 C8          4.2220    2.8290    2.8510 c         1 MOL      0.240056
     22 O5          3.7020    3.9330    2.8500 o         1 MOL     -0.500121
     23 C9          6.7810    2.6560    2.7360 c3        1 MOL     -0.493567
     24 H8          6.2190    4.1230    0.8600 hn        1 MOL      0.274745
     25 H9          5.5320    1.4950    1.5970 h1        1 MOL      0.109692
     26 H10         6.7280    2.2750    3.7490 hc        1 MOL      0.112530
     27 H11         7.5760    2.2040    2.1550 hc        1 MOL      0.112530
     28 H12         7.0450    3.7070    2.8100 hc        1 MOL      0.112530
     29 N3          3.7770    1.8520    3.6230 n         1 MOL     -0.242585
     30 C10         4.2980    0.3960    3.7770 c3        1 MOL     -0.089702
     31 C11         4.2190   -0.4430    2.4880 c         1 MOL     -0.123392
     32 O6          3.4140   -0.2310    1.5750 o         1 MOL     -0.296438
     33 C12         3.5180   -0.3240    4.8730 c3        1 MOL     -0.091915
     34 C13         2.0250   -0.3110    4.7140 c         1 MOL      0.571689
     35 O7          1.3700    0.0440    5.6500 o         1 MOL     -0.596172
     36 O8          1.5890   -0.8990    3.7020 o         1 MOL     -0.596172
     37 H13         2.9930    2.1480    4.1920 hn        1 MOL      0.274251
     38 H14         5.3590    0.4640    4.0180 h1        1 MOL      0.083088
     39 H15         3.7860    0.2090    5.7920 hc        1 MOL      0.040093
     40 H16         3.8000   -1.3750    4.9190 hc        1 MOL      0.040093
     41 N4          5.1460   -1.4150    2.3560 n         1 MOL     -0.112325
     42 C14         5.4820   -2.0650    1.1100 c3        1 MOL     -0.101728
     43 C15         6.3560   -1.1910    0.2120 c         1 MOL      0.660174
     44 O9          6.7400   -0.1210    0.6200 o         1 MOL     -0.563276
     45 H17         5.6500   -1.7920    3.1400 hn        1 MOL      0.251006
     46 H18         4.5550   -2.2950    0.5820 h1        1 MOL      0.062337
     47 H19         6.1520   -2.8860    1.3670 h1        1 MOL      0.062337
     48 N5          6.8290   -1.7400   -0.9240 n         1 MOL     -0.477403
     49 C16         6.6570   -3.1230   -1.3760 c3        1 MOL      0.008298
     50 C17         5.3030   -3.4460   -2.0400 c         1 MOL      0.472154
     51 O10         4.9540   -4.5960   -2.2120 o         1 MOL     -0.517571
     52 C18         7.8560   -3.4680   -2.2320 c3        1 MOL     -0.248575
     53 C19         9.0620   -3.6830   -1.3910 c         1 MOL      0.678266
     54 N6         10.0090   -2.7270   -1.3790 n         1 MOL     -0.822993
     55 O11         9.1730   -4.6910   -0.6560 o         1 MOL     -0.563476
     56 H20         7.5610   -1.1660   -1.3270 hn        1 MOL      0.319858
     57 H21         6.7280   -3.7640   -0.4970 h1        1 MOL      0.076455
     58 H22         8.0390   -2.7090   -2.9930 hc        1 MOL      0.094198
     59 H23         7.6640   -4.4740   -2.6110 hc        1 MOL      0.094198
     60 H24         9.9190   -1.8000   -1.7750 hn        1 MOL      0.379946
     61 H25        10.7920   -2.8990   -0.7660 hn        1 MOL      0.379946
     62 N7          4.5680   -2.3980   -2.3960 n         1 MOL     -0.150685
     63 C20         3.4820   -2.3970   -3.3420 c3        1 MOL     -0.378937
     64 C21         2.1920   -2.9990   -2.8000 c         1 MOL      0.497192
     65 O12         1.3050   -3.4890   -3.4930 o         1 MOL     -0.568385
     66 H26         5.0060   -1.5180   -2.1610 hn        1 MOL      0.187683
     67 H27         3.7430   -3.0740   -4.1510 h1        1 MOL      0.168926
     68 H28         3.3740   -1.3880   -3.7540 h1        1 MOL      0.168926
     69 N8          2.0090   -3.0680   -1.5040 n         1 MOL     -0.024463
     70 C22         0.9750   -3.8450   -0.8770 c3        1 MOL     -0.267390
     71 C23        -0.3890   -3.0730   -0.9870 c         1 MOL      0.301463
     72 O13        -0.4640   -1.8750   -0.6540 o         1 MOL     -0.364591
     73 C24         1.3600   -4.1040    0.5620 c3        1 MOL      0.309873
     74 C25         2.3430   -5.1940    0.7500 c3        1 MOL     -0.409780
     75 O14         1.9350   -2.9940    1.2020 oh        1 MOL     -0.912712
     76 H29         2.6640   -2.5850   -0.9050 hn        1 MOL      0.282586
     77 H30         0.8200   -4.8060   -1.3730 h1        1 MOL      0.130619
     78 H31         0.4580   -4.3880    1.0980 h1        1 MOL      0.082663
     79 H32         2.3670   -3.3310    1.9980 ho        1 MOL      0.536228
     80 H33         2.3250   -5.3920    1.8250 hc        1 MOL      0.110077
     81 H34         2.0830   -6.0940    0.1950 hc        1 MOL      0.110077
     82 H35         3.3380   -4.8400    0.4890 hc        1 MOL      0.110077
     83 N9         -1.4360   -3.8010   -1.4190 n         1 MOL     -0.123307
     84 C26        -2.7540   -3.2150   -1.4060 c3        1 MOL     -0.314948
     85 C27        -3.3490   -3.3610    0.0100 c         1 MOL      0.484030
     86 O15        -3.6180   -4.4760    0.4370 o         1 MOL     -0.566854
     87 C28        -3.6270   -3.8160   -2.5720 c3        1 MOL      0.255884
     88 C29        -5.1300   -3.2300   -2.5300 c3        1 MOL     -0.401604
     89 C30        -2.8820   -3.6540   -3.9580 c3        1 MOL     -0.258453
     90 C31        -5.1710   -1.7410   -2.6620 c3        1 MOL     -0.080096
     91 H36        -1.3510   -4.7830   -1.6430 hn        1 MOL      0.249494
     92 H37        -2.7930   -2.1280   -1.5760 h1        1 MOL      0.269950
     93 H38        -3.7040   -4.9030   -2.4540 hc        1 MOL     -0.020605
     94 H39        -5.6820   -3.5230   -1.6450 hc        1 MOL      0.128869
     95 H40        -5.6560   -3.5720   -3.4230 hc        1 MOL      0.128869
     96 H41        -3.3770   -4.0930   -4.8200 hc        1 MOL      0.062421
     97 H42        -2.6910   -2.5910   -4.0360 hc        1 MOL      0.062421
     98 H43        -1.8570   -4.0200   -3.8620 hc        1 MOL      0.062421
     99 H44        -6.1950   -1.4690   -2.4020 hc        1 MOL      0.027300
    100 H45        -4.6290   -1.3110   -1.8190 hc        1 MOL      0.027300
    101 H46        -4.7860   -1.3620   -3.6110 hc        1 MOL      0.027300
    102 N10        -3.6040   -2.2500    0.6830 n         1 MOL     -0.288155
    103 C32        -4.3710   -2.1890    2.0170 c3        1 MOL     -0.049547
    104 C33        -5.4930   -1.1090    2.0550 c         1 MOL      0.301462
    105 O16        -6.3000   -1.0670    3.0780 o         1 MOL     -0.550249
    106 C34        -3.3990   -2.1870    3.2360 c3        1 MOL      0.063273
    107 C35        -2.2040   -1.2380    3.1280 c         1 MOL      0.747560
    108 O17        -1.0750   -1.5620    2.6260 o         1 MOL     -0.733264
    109 O18        -2.3160   -0.1140    3.6610 o         1 MOL     -0.733264
    110 H47        -3.3190   -1.3550    0.2880 hn        1 MOL      0.223252
    111 H48        -4.9160   -3.1230    2.0450 h1        1 MOL      0.142958
    112 H49        -2.9190   -3.1670    3.2670 hc        1 MOL     -0.031056
    113 H50        -4.0000   -2.1130    4.1390 hc        1 MOL     -0.031056
    114 N11        -5.7280   -0.3240    0.9860 n         1 MOL      0.083357
    115 C36        -6.7840    0.6760    0.7720 c3        1 MOL      0.448921
    116 C37        -6.2720    2.1120    0.2980 c         1 MOL      0.050315
    117 O19        -6.7120    2.6470   -0.7310 o         1 MOL     -0.469764
    118 C38        -7.9750    0.1190   -0.0690 c3        1 MOL     -0.223039
    119 C39        -8.6530   -1.1510    0.4570 ca        1 MOL     -0.001326
    120 C40        -7.9450   -2.3830    0.2620 ca        1 MOL     -0.034545
    121 C41        -9.9520   -1.2000    0.9820 ca        1 MOL     -0.034545
    122 C42        -8.5190   -3.6210    0.7510 ca        1 MOL     -0.285443
    123 C43       -10.5280   -2.4210    1.3450 ca        1 MOL     -0.285443
    124 C44        -9.7650   -3.6020    1.3600 ca        1 MOL      0.081866
    125 H51        -4.9180   -0.2210    0.3890 hn        1 MOL     -0.016675
    126 H52        -7.2420    0.8460    1.7500 h1        1 MOL     -0.041475
    127 H53        -7.5720    0.0130   -1.0710 hc        1 MOL      0.058974
    128 H54        -8.7240    0.8870   -0.2690 hc        1 MOL      0.058974
    129 H55        -7.0690   -2.4490   -0.3700 ha        1 MOL      0.081745
    130 H56       -10.4840   -0.2870    1.1900 ha        1 MOL      0.081745
    131 H57        -8.0020   -4.5490    0.5790 ha        1 MOL      0.131030
    132 H58       -11.4040   -2.3870    1.9830 ha        1 MOL      0.131030
    133 H59       -10.1960   -4.5360    1.7000 ha        1 MOL      0.051461
    134 N12        -5.3280    2.7530    1.0300 n         1 MOL      0.076373
    135 C45        -4.7660    4.0330    0.6580 c3        1 MOL      0.055786
    136 C46        -4.1780    4.2270   -0.7160 c         1 MOL      0.203412
    137 O20        -4.2130    5.3610   -1.2920 o         1 MOL     -0.533221
    138 C47        -3.7050    4.2740    1.7190 c3        1 MOL     -0.241158
    139 C48        -4.3140    3.6740    2.9780 c3        1 MOL     -0.024159
    140 C49        -4.9620    2.4010    2.3800 c3        1 MOL     -0.017321
    141 H60        -5.4550    4.8680    0.8220 h1        1 MOL      0.046822
    142 H61        -2.8290    3.6640    1.4980 hc        1 MOL      0.116296
    143 H62        -3.3830    5.3130    1.8020 hc        1 MOL      0.116296
    144 H63        -3.6310    3.4540    3.8080 hc        1 MOL      0.031576
    145 H64        -5.1320    4.3190    3.2990 hc        1 MOL      0.031576
    146 H65        -4.2440    1.5810    2.3470 h1        1 MOL      0.046474
    147 H66        -5.8460    2.1220    2.9520 h1        1 MOL      0.046474
    148 N13        -3.8510    3.1930   -1.4310 n         1 MOL      0.096829
    149 C50        -3.4400    3.0560   -2.8610 c3        1 MOL     -0.330376
    150 C51        -4.6180    3.2300   -3.8920 c         1 MOL      0.662240
    151 O21        -4.5080    4.0880   -4.8060 o         1 MOL     -0.571052
    152 C52        -2.8100    1.5900   -2.9570 c3        1 MOL      0.221099
    153 C53        -1.6410    1.2420   -2.0190 c3        1 MOL     -0.149989
    154 C54        -2.0850    0.9500   -0.5720 c         1 MOL      0.331568
    155 O22        -1.2610    1.0870    0.3420 o         1 MOL     -0.567913
    156 O23        -3.1930    0.4880   -0.3870 o         1 MOL     -0.567913
    157 H67        -4.0000    2.3000   -0.9700 hn        1 MOL      0.253155
    158 H68        -2.6450    3.7490   -3.1560 h1        1 MOL      0.127337
    159 H69        -2.5080    1.6200   -4.0010 hc        1 MOL     -0.076481
    160 H70        -3.6490    0.9050   -2.9030 hc        1 MOL     -0.076481
    161 H71        -0.9280    2.0580   -1.9530 hc        1 MOL      0.049253
    162 H72        -1.1720    0.3460   -2.4380 hc        1 MOL      0.049253
    163 N14        -5.6730    2.4320   -3.7450 n         1 MOL     -0.348725
    164 C55        -6.9740    2.6530   -4.3010 c3        1 MOL     -0.161692
    165 H73        -7.4560    3.4780   -3.7770 h1        1 MOL      0.084307
    166 H74        -6.8800    2.9000   -5.3590 h1        1 MOL      0.084307
    167 H75        -7.5760    1.7510   -4.1900 h1        1 MOL      0.084307
    168 H76        -5.6140    1.7580   -2.9940 hn        1 MOL      0.242783
    169 Ca1         0.7680   -0.4470    1.3330 Ca        1 MOL      1.664903
    170 O24         1.7170    2.0880    1.1730 oh        1 MOL     -0.891354
    171 H77         1.5920    2.7380    1.8610 ho        1 MOL      0.421030
    172 H78         2.4570    2.4160    0.6520 ho        1 MOL      0.421030
    173 O25         1.8510   -0.1290   -1.1070 oh        1 MOL     -0.891354
    174 H79         2.7220    0.2390   -1.2100 ho        1 MOL      0.421030
    175 H80         1.4550   -0.0690   -1.9820 ho        1 MOL      0.421030
@<TRIPOS>BOND
     1    1    2 1   
     2    1    4 1   
     3    1    5 1   
     4    1    6 1   
     5    2    3 2   
     6    2    7 1   
     7    7    8 1   
     8    7   15 1   
     9    8    9 1   
    10    8   11 1   
    11    8   16 1   
    12    9   10 2   
    13    9   19 1   
    14   11   12 1   
    15   11   17 1   
    16   11   18 1   
    17   12   13 1   
    18   12   14 1   
    19   19   20 1   
    20   19   24 1   
    21   20   21 1   
    22   20   23 1   
    23   20   25 1   
    24   21   22 2   
    25   21   29 1   
    26   23   26 1   
    27   23   27 1   
    28   23   28 1   
    29   29   30 1   
    30   29   37 1   
    31   30   31 1   
    32   30   33 1   
    33   30   38 1   
    34   31   32 2   
    35   31   41 1   
    36   33   34 1   
    37   33   39 1   
    38   33   40 1   
    39   34   35 1   
    40   34   36 1   
    41   41   42 1   
    42   41   45 1   
    43   42   43 1   
    44   42   46 1   
    45   42   47 1   
    46   43   44 2   
    47   43   48 1   
    48   48   49 1   
    49   48   56 1   
    50   49   50 1   
    51   49   52 1   
    52   49   57 1   
    53   50   51 2   
    54   50   62 1   
    55   52   53 1   
    56   52   58 1   
    57   52   59 1   
    58   53   54 1   
    59   53   55 2   
    60   54   60 1   
    61   54   61 1   
    62   62   63 1   
    63   62   66 1   
    64   63   64 1   
    65   63   67 1   
    66   63   68 1   
    67   64   65 2   
    68   64   69 1   
    69   69   70 1   
    70   69   76 1   
    71   70   71 1   
    72   70   73 1   
    73   70   77 1   
    74   71   72 2   
    75   71   83 1   
    76   73   74 1   
    77   73   75 1   
    78   73   78 1   
    79   74   80 1   
    80   74   81 1   
    81   74   82 1   
    82   75   79 1   
    83   83   84 1   
    84   83   91 1   
    85   84   85 1   
    86   84   87 1   
    87   84   92 1   
    88   85   86 2   
    89   85  102 1   
    90   87   88 1   
    91   87   89 1   
    92   87   93 1   
    93   88   90 1   
    94   88   94 1   
    95   88   95 1   
    96   89   96 1   
    97   89   97 1   
    98   89   98 1   
    99   90   99 1   
   100   90  100 1   
   101   90  101 1   
   102  102  103 1   
   103  102  110 1   
   104  103  104 1   
   105  103  106 1   
   106  103  111 1   
   107  104  105 2   
   108  104  114 1   
   109  106  107 1   
   110  106  112 1   
   111  106  113 1   
   112  107  108 1   
   113  107  109 1   
   114  114  115 1   
   115  114  125 1   
   116  115  116 1   
   117  115  118 1   
   118  115  126 1   
   119  116  117 2   
   120  116  134 1   
   121  118  119 1   
   122  118  127 1   
   123  118  128 1   
   124  119  120 ar  
   125  119  121 ar  
   126  120  122 ar  
   127  120  129 1   
   128  121  123 ar  
   129  121  130 1   
   130  122  124 ar  
   131  122  131 1   
   132  123  124 ar  
   133  123  132 1   
   134  124  133 1   
   135  134  135 1   
   136  134  140 1   
   137  135  136 1   
   138  135  138 1   
   139  135  141 1   
   140  136  137 2   
   141  136  148 1   
   142  138  139 1   
   143  138  142 1   
   144  138  143 1   
   145  139  140 1   
   146  139  144 1   
   147  139  145 1   
   148  140  146 1   
   149  140  147 1   
   150  148  149 1   
   151  148  157 1   
   152  149  150 1   
   153  149  152 1   
   154  149  158 1   
   155  150  151 2   
   156  150  163 1   
   157  152  153 1   
   158  152  159 1   
   159  152  160 1   
   160  153  154 1   
   161  153  161 1   
   162  153  162 1   
   163  154  155 1   
   164  154  156 1   
   165  163  164 1   
   166  163  168 1   
   167  164  165 1   
   168  164  166 1   
   169  164  167 1   
   170  170  171 1   
   171  170  172 1   
   172  173  174 1   
   173  173  175 1   
@<TRIPOS>SUBSTRUCTURE
     1 MOL         1 TEMP              0 ****  ****    0 ROOT
