@<TRIPOS>MOLECULE
MOL
  188   182     1     0     0
SMALL
resp


@<TRIPOS>ATOM
      1 C1          5.1920   -0.9980    5.8190 c3        1 MOL     -0.252147
      2 C2          4.0740   -0.9450    4.7120 c         1 MOL      0.681851
      3 O1          2.9500   -0.4360    4.9700 o         1 MOL     -0.579707
      4 H1          5.3290   -2.0280    6.1470 hc        1 MOL      0.070141
      5 H2          6.1280   -0.6210    5.4100 hc        1 MOL      0.070141
      6 H3          4.8920   -0.3840    6.6690 hc        1 MOL      0.070141
      7 N1          4.4000   -1.3470    3.4830 n         1 MOL     -0.849038
      8 C3          3.5680   -0.9640    2.2930 c3        1 MOL      0.351998
      9 C4          3.3350   -2.1230    1.3230 c         1 MOL      0.351678
     10 O2          2.2550   -2.2200    0.6720 o         1 MOL     -0.454714
     11 C5          4.3320    0.2300    1.5740 c3        1 MOL      0.250550
     12 C6          5.7570   -0.1020    1.1870 c         1 MOL      0.475346
     13 O3          6.0080   -1.0220    0.3650 o         1 MOL     -0.634239
     14 O4          6.6730    0.5950    1.7180 o         1 MOL     -0.634239
     15 H4          5.3020   -1.7350    3.2690 hn        1 MOL      0.418131
     16 H5          2.6020   -0.5130    2.5300 h1        1 MOL      0.010840
     17 H6          4.3010    1.1070    2.2090 hc        1 MOL     -0.076258
     18 H7          3.7160    0.5120    0.7160 hc        1 MOL     -0.076258
     19 N2          4.2930   -3.1330    1.4030 n         1 MOL     -0.510006
     20 C7          4.2030   -4.5320    0.8320 c3        1 MOL      0.231271
     21 C8          4.3820   -4.5840   -0.6560 c         1 MOL      0.415000
     22 O5          5.1440   -5.4170   -1.1250 o         1 MOL     -0.535823
     23 C9          5.0290   -5.4190    1.7100 c3        1 MOL      0.093564
     24 C10         4.8160   -5.3170    3.2600 c3        1 MOL      0.028720
     25 C11         5.2850   -6.6170    3.8740 c3        1 MOL      0.077599
     26 C12         5.4270   -6.3620    5.3610 c3        1 MOL      0.059690
     27 N3          6.3190   -7.3700    5.9490 n4        1 MOL     -0.305565
     28 H8          5.1080   -2.9480    1.9700 hn        1 MOL      0.266828
     29 H9          3.1570   -4.7720    0.9690 h1        1 MOL     -0.015446
     30 H10         6.0840   -5.2830    1.4570 hc        1 MOL     -0.011591
     31 H11         4.8680   -6.4540    1.4250 hc        1 MOL     -0.011591
     32 H12         3.7690   -5.1560    3.5460 hc        1 MOL     -0.019580
     33 H13         5.4070   -4.4710    3.6070 hc        1 MOL     -0.019580
     34 H14         6.2920   -6.8400    3.5220 hc        1 MOL      0.003609
     35 H15         4.5910   -7.4460    3.7030 hc        1 MOL      0.003609
     36 H16         4.4880   -6.3520    5.9050 hx        1 MOL      0.060600
     37 H17         5.9010   -5.3830    5.4390 hx        1 MOL      0.060600
     38 H18         7.2720   -7.2890    5.6350 hn        1 MOL      0.312340
     39 H19         6.3180   -7.3290    6.9520 hn        1 MOL      0.312340
     40 H20         6.0280   -8.2890    5.6520 hn        1 MOL      0.312340
     41 N4          3.9140   -3.5490   -1.4150 n         1 MOL     -0.128209
     42 C13         4.0400   -3.4080   -2.8540 c3        1 MOL     -0.106006
     43 C14         4.3460   -1.9020   -3.1800 c         1 MOL      0.559443
     44 O6          3.8180   -1.3570   -4.1290 o         1 MOL     -0.499094
     45 C15         2.7360   -3.9370   -3.5520 c3        1 MOL     -0.287593
     46 C16         1.4560   -3.2210   -3.1960 c         1 MOL      0.725531
     47 O7          1.0250   -3.4140   -2.0270 o         1 MOL     -0.718693
     48 O8          0.8380   -2.5230   -4.0120 o         1 MOL     -0.718693
     49 H21         3.2120   -3.0040   -0.9340 hn        1 MOL      0.047847
     50 H22         4.7950   -4.0940   -3.2340 h1        1 MOL      0.118160
     51 H23         2.7020   -5.0250   -3.4590 hc        1 MOL      0.107377
     52 H24         2.8180   -3.8010   -4.6380 hc        1 MOL      0.107377
     53 N5          5.2460   -1.3300   -2.4100 n         1 MOL     -0.435560
     54 C17         5.5880    0.0700   -2.5520 c3        1 MOL      0.053876
     55 C18         6.4100    0.4340   -3.7530 c         1 MOL      0.552824
     56 O9          6.9860   -0.4440   -4.3720 o         1 MOL     -0.538716
     57 H25         5.6130   -1.8780   -1.6490 hn        1 MOL      0.286704
     58 H26         6.1080    0.3390   -1.6350 h1        1 MOL      0.076028
     59 H27         4.6560    0.6280   -2.6160 h1        1 MOL      0.076028
     60 N6          6.5640    1.6880   -4.1170 n         1 MOL     -0.479696
     61 C19         5.8710    2.8310   -3.4150 c3        1 MOL      0.039729
     62 C20         6.2940    3.0370   -1.9330 c         1 MOL      0.519016
     63 O10         7.4870    2.9080   -1.6150 o         1 MOL     -0.491274
     64 C21         6.2640    4.1390   -4.1260 c3        1 MOL     -0.452693
     65 C22         5.5370    4.2630   -5.4880 c         1 MOL      0.735975
     66 N7          4.6560    5.1720   -5.5690 n         1 MOL     -0.776225
     67 O11         5.7230    3.5290   -6.4410 o         1 MOL     -0.544410
     68 H28         7.0440    1.8890   -4.9850 hn        1 MOL      0.321659
     69 H29         4.8050    2.7610   -3.5840 h1        1 MOL      0.090174
     70 H30         7.3540    4.1980   -4.2100 hc        1 MOL      0.147082
     71 H31         6.0630    5.0190   -3.5050 hc        1 MOL      0.147082
     72 H32         4.3890    5.7200   -4.7590 hn        1 MOL      0.356897
     73 H33         3.9780    5.1420   -6.3210 hn        1 MOL      0.356897
     74 N8          5.3390    3.2670   -1.0180 n         1 MOL     -0.400973
     75 C23         3.9210    3.3710   -1.3520 c3        1 MOL      0.068253
     76 C24         3.0970    3.9000   -0.1220 c         1 MOL      0.604118
     77 O12         3.6030    4.1600    0.9820 o         1 MOL     -0.497956
     78 H34         5.4890    3.3030   -0.0250 hn        1 MOL      0.273847
     79 H35         3.5920    2.4150   -1.7650 h1        1 MOL     -0.028113
     80 H36         3.8090    4.1590   -2.1070 h1        1 MOL     -0.028113
     81 N9          1.7320    4.0150   -0.2430 n         1 MOL     -0.558837
     82 C25         0.8220    4.5060    0.7810 c3        1 MOL      0.064244
     83 C26        -0.4520    3.6140    0.7730 c         1 MOL      0.774034
     84 O13        -0.6960    2.8860   -0.1880 o         1 MOL     -0.569308
     85 C27         0.6350    6.0500    0.6190 c3        1 MOL     -0.170566
     86 C28        -0.1520    6.7730    1.7270 ca        1 MOL      0.101925
     87 C29        -1.5270    6.9960    1.5880 ca        1 MOL     -0.233112
     88 C30         0.5240    7.1360    2.9510 ca        1 MOL     -0.233112
     89 C31        -2.2280    7.7320    2.5030 ca        1 MOL     -0.176885
     90 C32        -0.2490    7.7680    3.9120 ca        1 MOL     -0.176885
     91 C33        -1.6040    8.0890    3.6590 ca        1 MOL      0.304861
     92 O14        -2.3600    8.7150    4.5870 oh        1 MOL     -0.491195
     93 H37         1.3430    3.5870   -1.0730 hn        1 MOL      0.281346
     94 H38         1.2470    4.4710    1.7880 h1        1 MOL      0.053469
     95 H39         0.0480    6.2700   -0.2700 hc        1 MOL      0.084000
     96 H40         1.6050    6.5370    0.4960 hc        1 MOL      0.084000
     97 H41        -2.0400    6.6140    0.7120 ha        1 MOL      0.168146
     98 H42         1.5710    6.9370    3.1010 ha        1 MOL      0.168146
     99 H43        -3.2950    7.9150    2.4520 ha        1 MOL      0.122225
    100 H44         0.2340    8.0400    4.8380 ha        1 MOL      0.122225
    101 H45        -2.0330    8.5830    5.4860 ho        1 MOL      0.359660
    102 N10        -1.2670    3.6240    1.8630 n         1 MOL     -0.636040
    103 C34        -2.5010    2.9010    1.8740 c3        1 MOL     -0.071937
    104 C35        -3.4650    3.2680    0.7510 c         1 MOL      0.773159
    105 O15        -3.3060    4.2650    0.0660 o         1 MOL     -0.567331
    106 C36        -3.1730    2.8970    3.2350 c3        1 MOL      0.027589
    107 C37        -2.4710    2.1240    4.3750 c3        1 MOL      0.158799
    108 C38        -3.2690    4.3460    3.7320 c3        1 MOL     -0.190580
    109 C39        -3.3340    1.8130    5.5780 c3        1 MOL     -0.309766
    110 H46        -1.0930    4.2470    2.6370 hn        1 MOL      0.313500
    111 H47        -2.2330    1.9040    1.5400 h1        1 MOL      0.057600
    112 H48        -4.1920    2.5100    3.2270 hc        1 MOL      0.048946
    113 H49        -1.5050    2.4770    4.7140 hc        1 MOL     -0.006339
    114 H50        -2.1910    1.1930    3.8880 hc        1 MOL     -0.006339
    115 H51        -3.7520    4.9810    2.9750 hc        1 MOL      0.051256
    116 H52        -3.6920    4.3150    4.7310 hc        1 MOL      0.051256
    117 H53        -2.2260    4.6790    3.7770 hc        1 MOL      0.051256
    118 H54        -4.2630    1.3730    5.2280 hc        1 MOL      0.079781
    119 H55        -2.7220    1.0590    6.0680 hc        1 MOL      0.079781
    120 H56        -3.4530    2.7330    6.1610 hc        1 MOL      0.079781
    121 N11        -4.3950    2.4030    0.5170 n         1 MOL     -0.547571
    122 C40        -5.3430    2.5620   -0.6060 c3        1 MOL     -0.000026
    123 C41        -5.5740    1.2320   -1.4460 c         1 MOL      0.618891
    124 O16        -5.2690    0.1340   -1.0210 o         1 MOL     -0.457209
    125 C42        -6.6650    3.0670    0.0380 c3        1 MOL     -0.004875
    126 O17        -7.1690    2.3360    1.1430 oh        1 MOL     -0.564021
    127 H57        -4.5720    1.7050    1.2140 hn        1 MOL      0.290999
    128 H58        -4.9050    3.2550   -1.3270 h1        1 MOL      0.076009
    129 H59        -7.4390    3.2460   -0.7050 h1        1 MOL      0.062147
    130 H60        -6.4530    4.0570    0.4550 h1        1 MOL      0.062147
    131 H61        -7.7320    2.9490    1.6350 ho        1 MOL      0.407917
    132 N12        -6.0990    1.3710   -2.6420 n         1 MOL     -0.469080
    133 C43        -6.1820    0.3410   -3.6840 c3        1 MOL      0.075518
    134 C44        -7.1110   -0.8790   -3.3660 c         1 MOL      0.500509
    135 O18        -6.7950   -1.9770   -3.8310 o         1 MOL     -0.450153
    136 C45        -4.7990    0.1260   -4.3200 c3        1 MOL     -0.097294
    137 H62        -6.5970    2.2370   -2.7380 hn        1 MOL      0.260919
    138 H63        -6.7560    0.8480   -4.4580 h1        1 MOL      0.060852
    139 H64        -4.1790   -0.3940   -3.5930 hc        1 MOL      0.043650
    140 H65        -4.8430   -0.4530   -5.2390 hc        1 MOL      0.043650
    141 H66        -4.4260    1.1110   -4.5720 hc        1 MOL      0.043650
    142 N13        -8.2670   -0.6930   -2.6670 n         1 MOL     -0.501588
    143 C46        -9.2790   -1.7420   -2.3160 c3        1 MOL      0.210031
    144 C47        -8.5310   -2.9550   -1.7710 c         1 MOL      0.504903
    145 O19        -8.7830   -4.1100   -2.1250 o         1 MOL     -0.499508
    146 C48       -10.1800   -2.0090   -3.5100 c3        1 MOL     -0.476981
    147 H67        -8.5190    0.2260   -2.3400 hn        1 MOL      0.265236
    148 H68        -9.7540   -1.3230   -1.4340 h1        1 MOL      0.043657
    149 H69        -9.6410   -2.5420   -4.2870 hc        1 MOL      0.141853
    150 H70       -10.9700   -2.6540   -3.1440 hc        1 MOL      0.141853
    151 H71       -10.5370   -1.1400   -4.0730 hc        1 MOL      0.141853
    152 N14        -7.6150   -2.7460   -0.8080 n         1 MOL     -0.631632
    153 C49        -6.6250   -3.7960   -0.3940 c3        1 MOL      0.341937
    154 C50        -6.9530   -4.3410    0.9730 c         1 MOL      0.304536
    155 O20        -6.6950   -5.5250    1.2880 o         1 MOL     -0.522337
    156 C51        -5.2320   -3.2410   -0.3960 c3        1 MOL      0.023545
    157 C52        -4.2440   -3.9050    0.6570 c3        1 MOL     -0.389804
    158 C53        -2.9220   -3.2510    0.5150 c         1 MOL      0.944464
    159 O21        -2.1080   -3.8610   -0.1780 o         1 MOL     -0.846054
    160 O22        -2.6330   -2.1490    0.9890 o         1 MOL     -0.846054
    161 H72        -7.3900   -1.7770   -0.6270 hn        1 MOL      0.292305
    162 H73        -6.7030   -4.6230   -1.0960 h1        1 MOL      0.076062
    163 H74        -5.2580   -2.1870   -0.0830 hc        1 MOL      0.009964
    164 H75        -4.9490   -3.2240   -1.4530 hc        1 MOL      0.009964
    165 H76        -4.0840   -4.9780    0.5610 hc        1 MOL      0.106392
    166 H77        -4.6100   -3.7450    1.6750 hc        1 MOL      0.106392
    167 N15        -7.6010   -3.5680    1.8540 n         1 MOL     -0.172545
    168 C54        -7.9980   -4.0200    3.1990 c3        1 MOL     -0.222397
    169 H78        -7.5960   -5.0170    3.3810 h1        1 MOL      0.100081
    170 H79        -7.6060   -3.3300    3.9460 h1        1 MOL      0.100081
    171 H80        -9.0860   -4.0500    3.2670 h1        1 MOL      0.100081
    172 H81        -7.8840   -2.6380    1.5830 hn        1 MOL      0.188329
    173 Ca1        -0.2960   -1.9820   -0.2030 Ca        1 MOL      1.704471
    174 O23        -0.1220   -0.4170    2.0760 oh        1 MOL     -0.799697
    175 H82         0.4160    0.1950    2.5730 ho        1 MOL      0.398696
    176 H83        -0.7720   -0.7350    2.7150 ho        1 MOL      0.398696
    177 O24         1.3600   -0.3850   -1.7670 oh        1 MOL     -0.799697
    178 H84         1.6470    0.5300   -1.8600 ho        1 MOL      0.398696
    179 H85         1.3580   -0.7320   -2.6550 ho        1 MOL      0.398696
    180 O25        -1.4630   -2.0240   -2.8840 oh        1 MOL     -0.799697
    181 H86        -1.9020   -2.8740   -2.8970 ho        1 MOL      0.398696
    182 H87        -0.6860   -2.1390   -3.4240 ho        1 MOL      0.398696
    183 O26        -1.5050    0.3190   -0.7200 oh        1 MOL     -0.799697
    184 H88        -1.2260    1.2330   -0.8030 ho        1 MOL      0.398696
    185 H89        -2.4360    0.3270   -0.9620 ho        1 MOL      0.398696
    186 O27         0.0260   -3.3190    2.1450 oh        1 MOL     -0.799697
    187 H90         0.4700   -2.9850    2.9150 ho        1 MOL      0.398696
    188 H91         0.4810   -4.1440    1.9530 ho        1 MOL      0.398696
@<TRIPOS>BOND
     1    1    2 1   
     2    1    4 1   
     3    1    5 1   
     4    1    6 1   
     5    2    3 2   
     6    2    7 1   
     7    7    8 1   
     8    7   15 1   
     9    8    9 1   
    10    8   11 1   
    11    8   16 1   
    12    9   10 2   
    13    9   19 1   
    14   11   12 1   
    15   11   17 1   
    16   11   18 1   
    17   12   13 1   
    18   12   14 1   
    19   19   20 1   
    20   19   28 1   
    21   20   21 1   
    22   20   23 1   
    23   20   29 1   
    24   21   22 2   
    25   21   41 1   
    26   23   24 1   
    27   23   30 1   
    28   23   31 1   
    29   24   25 1   
    30   24   32 1   
    31   24   33 1   
    32   25   26 1   
    33   25   34 1   
    34   25   35 1   
    35   26   27 1   
    36   26   36 1   
    37   26   37 1   
    38   27   38 1   
    39   27   39 1   
    40   27   40 1   
    41   41   42 1   
    42   41   49 1   
    43   42   43 1   
    44   42   45 1   
    45   42   50 1   
    46   43   44 2   
    47   43   53 1   
    48   45   46 1   
    49   45   51 1   
    50   45   52 1   
    51   46   47 1   
    52   46   48 1   
    53   53   54 1   
    54   53   57 1   
    55   54   55 1   
    56   54   58 1   
    57   54   59 1   
    58   55   56 2   
    59   55   60 1   
    60   60   61 1   
    61   60   68 1   
    62   61   62 1   
    63   61   64 1   
    64   61   69 1   
    65   62   63 2   
    66   62   74 1   
    67   64   65 1   
    68   64   70 1   
    69   64   71 1   
    70   65   66 1   
    71   65   67 2   
    72   66   72 1   
    73   66   73 1   
    74   74   75 1   
    75   74   78 1   
    76   75   76 1   
    77   75   79 1   
    78   75   80 1   
    79   76   77 2   
    80   76   81 1   
    81   81   82 1   
    82   81   93 1   
    83   82   83 1   
    84   82   85 1   
    85   82   94 1   
    86   83   84 2   
    87   83  102 1   
    88   85   86 1   
    89   85   95 1   
    90   85   96 1   
    91   86   87 ar  
    92   86   88 ar  
    93   87   89 ar  
    94   87   97 1   
    95   88   90 ar  
    96   88   98 1   
    97   89   91 ar  
    98   89   99 1   
    99   90   91 ar  
   100   90  100 1   
   101   91   92 1   
   102   92  101 1   
   103  102  103 1   
   104  102  110 1   
   105  103  104 1   
   106  103  106 1   
   107  103  111 1   
   108  104  105 2   
   109  104  121 1   
   110  106  107 1   
   111  106  108 1   
   112  106  112 1   
   113  107  109 1   
   114  107  113 1   
   115  107  114 1   
   116  108  115 1   
   117  108  116 1   
   118  108  117 1   
   119  109  118 1   
   120  109  119 1   
   121  109  120 1   
   122  121  122 1   
   123  121  127 1   
   124  122  123 1   
   125  122  125 1   
   126  122  128 1   
   127  123  124 2   
   128  123  132 1   
   129  125  126 1   
   130  125  129 1   
   131  125  130 1   
   132  126  131 1   
   133  132  133 1   
   134  132  137 1   
   135  133  134 1   
   136  133  136 1   
   137  133  138 1   
   138  134  135 2   
   139  134  142 1   
   140  136  139 1   
   141  136  140 1   
   142  136  141 1   
   143  142  143 1   
   144  142  147 1   
   145  143  144 1   
   146  143  146 1   
   147  143  148 1   
   148  144  145 2   
   149  144  152 1   
   150  146  149 1   
   151  146  150 1   
   152  146  151 1   
   153  152  153 1   
   154  152  161 1   
   155  153  154 1   
   156  153  156 1   
   157  153  162 1   
   158  154  155 2   
   159  154  167 1   
   160  156  157 1   
   161  156  163 1   
   162  156  164 1   
   163  157  158 1   
   164  157  165 1   
   165  157  166 1   
   166  158  159 1   
   167  158  160 1   
   168  167  168 1   
   169  167  172 1   
   170  168  169 1   
   171  168  170 1   
   172  168  171 1   
   173  174  175 1   
   174  174  176 1   
   175  177  178 1   
   176  177  179 1   
   177  180  181 1   
   178  180  182 1   
   179  183  184 1   
   180  183  185 1   
   181  186  187 1   
   182  186  188 1   
@<TRIPOS>SUBSTRUCTURE
     1 MOL         1 TEMP              0 ****  ****    0 ROOT
