@<TRIPOS>MOLECULE
MOL
  186   183     1     0     0
SMALL
resp


@<TRIPOS>ATOM
      1 C1         12.3160    4.4900   -4.2060 c3        1 MOL     -0.339263
      2 C2         12.5260    3.4770   -3.0310 c         1 MOL      0.603245
      3 O1         12.9850    2.3510   -3.0960 o         1 MOL     -0.558660
      4 H1         13.2820    4.8830   -4.5230 hc        1 MOL      0.091042
      5 H2         11.8390    3.9820   -5.0430 hc        1 MOL      0.091042
      6 H3         11.6830    5.3120   -3.8700 hc        1 MOL      0.091042
      7 N1         12.1750    3.9090   -1.7850 n         1 MOL     -0.235536
      8 C3         11.8100    3.1180   -0.6100 c3        1 MOL     -0.712137
      9 C4         10.6110    2.2440   -0.9350 c         1 MOL      1.091923
     10 O2          9.5870    2.6510   -1.4690 o         1 MOL     -0.881145
     11 C5         11.4860    4.0310    0.5750 c3        1 MOL     -0.214509
     12 C6         10.5480    5.2250    0.2700 c         1 MOL      0.605378
     13 O3          9.6780    5.2660   -0.6040 o         1 MOL     -0.683993
     14 O4         10.7870    6.2540    0.9700 o         1 MOL     -0.683993
     15 H4         12.0320    4.9010   -1.7010 hn        1 MOL      0.322127
     16 H5         12.5760    2.4230   -0.2670 h1        1 MOL      0.209864
     17 H6         12.3530    4.5810    0.9290 hc        1 MOL      0.161634
     18 H7         11.0680    3.4040    1.3650 hc        1 MOL      0.161634
     19 N2         10.7320    0.9650   -0.6030 n         1 MOL     -0.392481
     20 C7          9.8300   -0.1140   -1.1330 c3        1 MOL     -0.405077
     21 C8          8.4640   -0.1970   -0.5180 c         1 MOL      0.651815
     22 O5          7.6910   -0.9750   -1.0280 o         1 MOL     -0.508564
     23 C9         10.5200   -1.4860   -1.2070 c3        1 MOL     -0.164484
     24 C10        11.0920   -1.8670    0.1230 c3        1 MOL      0.339992
     25 C11        11.6300   -3.3630    0.1170 c3        1 MOL     -0.084407
     26 C12        11.9940   -3.9080    1.5270 c3        1 MOL     -0.030604
     27 N3         13.3270   -3.3630    1.9220 n4        1 MOL     -0.406126
     28 H8         11.5900    0.6030   -0.1970 hn        1 MOL      0.242192
     29 H9          9.6850    0.1570   -2.1840 h1        1 MOL      0.283421
     30 H10        11.3470   -1.4620   -1.9260 hc        1 MOL      0.067108
     31 H11         9.8050   -2.2440   -1.5280 hc        1 MOL      0.067108
     32 H12        10.2900   -1.6960    0.8280 hc        1 MOL     -0.073993
     33 H13        11.8730   -1.1460    0.3720 hc        1 MOL     -0.073993
     34 H14        12.5350   -3.4840   -0.4820 hc        1 MOL      0.048720
     35 H15        10.8640   -4.0680   -0.2000 hc        1 MOL      0.048720
     36 H16        12.1410   -4.9910    1.5500 hx        1 MOL      0.119341
     37 H17        11.2340   -3.6630    2.2660 hx        1 MOL      0.119341
     38 H18        13.4470   -2.3770    1.7460 hn        1 MOL      0.296419
     39 H19        13.4380   -3.3940    2.9230 hn        1 MOL      0.296419
     40 H20        14.0300   -3.9450    1.4850 hn        1 MOL      0.296419
     41 N4          8.2650    0.5350    0.5940 n         1 MOL     -0.174359
     42 C13         7.0210    0.5740    1.3680 c3        1 MOL     -0.245660
     43 C14         5.8800    1.0350    0.3810 c         1 MOL      0.542339
     44 O6          6.0950    1.7300   -0.5700 o         1 MOL     -0.682092
     45 C15         7.1620    1.4480    2.6650 c3        1 MOL     -0.166344
     46 C16         7.8020    2.7900    2.4790 c         1 MOL      0.462116
     47 O7          8.0570    3.4400    3.5560 o         1 MOL     -0.590048
     48 O8          8.1840    3.2030    1.3630 o         1 MOL     -0.590048
     49 H21         9.0390    1.1410    0.8160 hn        1 MOL      0.192815
     50 H22         6.7220   -0.4410    1.6450 h1        1 MOL      0.122056
     51 H23         7.8310    0.9110    3.3420 hc        1 MOL      0.119460
     52 H24         6.1740    1.5390    3.1210 hc        1 MOL      0.119460
     53 N5          4.6620    0.6320    0.5580 n         1 MOL     -0.440466
     54 C17         4.1300   -0.1020    1.6680 c3        1 MOL      0.076353
     55 C18         4.2330   -1.6730    1.5560 c         1 MOL      0.644610
     56 O9          5.2360   -2.2230    1.1040 o         1 MOL     -0.535658
     57 H25         4.1000    0.7930   -0.2600 hn        1 MOL      0.330823
     58 H26         3.1060    0.2130    1.8330 h1        1 MOL      0.054182
     59 H27         4.6000    0.1600    2.6110 h1        1 MOL      0.054182
     60 N6          3.3090   -2.4300    2.1270 n         1 MOL     -0.628385
     61 C19         3.3330   -3.9260    2.2670 c3        1 MOL      0.092204
     62 C20         1.8450   -4.5430    2.3260 c         1 MOL      0.428885
     63 O10         0.8520   -3.8830    2.5680 o         1 MOL     -0.378652
     64 C21         3.9970   -4.3950    3.6310 c3        1 MOL     -0.171394
     65 C22         3.2030   -4.0710    4.9010 c         1 MOL      0.685350
     66 O11         2.8170   -5.0880    5.5700 o         1 MOL     -0.626545
     67 O12         3.0520   -2.9110    5.3680 o         1 MOL     -0.626545
     68 H28         2.5720   -1.9400    2.6150 hn        1 MOL      0.313160
     69 H29         3.9200   -4.3350    1.4490 h1        1 MOL      0.054709
     70 H30         4.9600   -3.8960    3.6380 hc        1 MOL      0.030045
     71 H31         4.1580   -5.4710    3.6350 hc        1 MOL      0.030045
     72 N7          1.8150   -5.8910    2.0090 n         1 MOL     -0.341685
     73 C23         0.5590   -6.6020    1.8910 c3        1 MOL     -0.097705
     74 C24        -0.3500   -5.9200    0.8940 c         1 MOL      0.587914
     75 O13        -1.5200   -5.8810    1.1110 o         1 MOL     -0.570776
     76 H32         2.6800   -6.3380    1.7240 hn        1 MOL      0.273054
     77 H33        -0.0480   -6.6010    2.7920 h1        1 MOL      0.089030
     78 H34         0.7080   -7.6400    1.5860 h1        1 MOL      0.089030
     79 N8          0.0450   -5.4540   -0.2720 n         1 MOL     -0.340559
     80 C25        -0.7890   -4.7940   -1.3270 c3        1 MOL     -0.019260
     81 C26        -1.3070   -3.3990   -0.9200 c         1 MOL      0.644814
     82 O14        -0.7560   -2.8140    0.0160 o         1 MOL     -0.504495
     83 C27        -0.0700   -4.8260   -2.6580 c3        1 MOL      0.441490
     84 C28         1.1380   -3.8160   -2.7360 c3        1 MOL     -0.659072
     85 O15         0.2250   -6.1360   -3.0010 oh        1 MOL     -0.631010
     86 H35         1.0440   -5.3910   -0.4590 hn        1 MOL      0.156368
     87 H36        -1.6810   -5.3920   -1.5050 h1        1 MOL      0.053949
     88 H37        -0.8880   -4.5240   -3.3220 h1        1 MOL     -0.064476
     89 H38         0.6060   -6.1370   -3.8780 ho        1 MOL      0.409501
     90 H39         1.6110   -4.0820   -3.6830 hc        1 MOL      0.173976
     91 H40         0.8520   -2.8020   -2.4360 hc        1 MOL      0.173976
     92 H41         1.9250   -4.0760   -2.0240 hc        1 MOL      0.173976
     93 N9         -2.3080   -2.8580   -1.6560 n         1 MOL     -0.563927
     94 C29        -2.8550   -1.4920   -1.4300 c3        1 MOL      0.008496
     95 C30        -4.3490   -1.5290   -0.8860 c         1 MOL      0.625281
     96 O16        -4.7980   -0.7580   -0.0660 o         1 MOL     -0.527959
     97 C31        -2.7050   -0.5830   -2.6930 c3        1 MOL      0.165974
     98 C32        -1.5750   -1.0720   -3.5740 c3        1 MOL     -0.008836
     99 C33        -2.3450    0.8420   -2.1590 c3        1 MOL     -0.198562
    100 C34        -1.5120   -0.3370   -4.9040 c3        1 MOL     -0.226186
    101 H42        -2.5980   -3.4200   -2.4430 hn        1 MOL      0.314552
    102 H43        -2.1670   -0.9790   -0.7550 h1        1 MOL      0.086559
    103 H44        -3.6430   -0.5390   -3.2530 hc        1 MOL     -0.007771
    104 H45        -1.7240   -2.1170   -3.8630 hc        1 MOL      0.032865
    105 H46        -0.6410   -0.9320   -3.0260 hc        1 MOL      0.032865
    106 H47        -1.3250    0.8900   -1.7790 hc        1 MOL      0.050283
    107 H48        -2.5320    1.5330   -2.9840 hc        1 MOL      0.050283
    108 H49        -3.0610    1.0110   -1.3440 hc        1 MOL      0.050283
    109 H50        -0.8730   -0.8760   -5.6010 hc        1 MOL      0.050734
    110 H51        -2.5050   -0.3860   -5.3710 hc        1 MOL      0.050734
    111 H52        -1.0760    0.6590   -4.8630 hc        1 MOL      0.050734
    112 N10        -5.0180   -2.6460   -1.2000 n         1 MOL     -0.544044
    113 C35        -6.4030   -2.9200   -0.6880 c3        1 MOL     -0.017188
    114 C36        -7.4590   -2.6080   -1.7490 c         1 MOL      0.738044
    115 O17        -7.3240   -2.9670   -2.9030 o         1 MOL     -0.558065
    116 C37        -6.5490   -4.3920   -0.2450 c3        1 MOL      0.297384
    117 C38        -5.6740   -4.6840    0.9990 c3        1 MOL     -0.260610
    118 O18        -7.8500   -4.6880    0.1710 oh        1 MOL     -0.663284
    119 H53        -4.4780   -3.3600   -1.6530 hn        1 MOL      0.228295
    120 H54        -6.6240   -2.2550    0.1430 h1        1 MOL      0.125645
    121 H55        -6.3000   -5.0710   -1.0550 h1        1 MOL      0.045887
    122 H56        -7.8210   -4.9670    1.0910 ho        1 MOL      0.406130
    123 H57        -6.0520   -4.1470    1.8660 hc        1 MOL      0.084097
    124 H58        -5.7160   -5.7460    1.2400 hc        1 MOL      0.084097
    125 H59        -4.6060   -4.4950    0.8260 hc        1 MOL      0.084097
    126 N11        -8.5400   -1.9040   -1.3170 n         1 MOL     -0.693475
    127 C39        -9.8200   -1.6910   -2.0510 c3        1 MOL      0.100192
    128 C40       -10.3110   -0.2520   -2.0790 c         1 MOL      0.661620
    129 O19       -10.7390    0.2940   -3.1180 o         1 MOL     -0.560083
    130 C41       -10.8930   -2.6870   -1.6010 c3        1 MOL      0.369194
    131 C42       -12.1460   -2.6800   -2.4900 c3        1 MOL     -0.509273
    132 O20       -11.1520   -2.5040   -0.2280 oh        1 MOL     -0.640135
    133 H60        -8.6450   -1.7850   -0.3280 hn        1 MOL      0.285215
    134 H61        -9.6550   -1.9210   -3.1120 h1        1 MOL      0.054588
    135 H62       -10.5440   -3.7190   -1.6850 h1        1 MOL      0.031479
    136 H63       -11.0940   -3.3440    0.2370 ho        1 MOL      0.408505
    137 H64       -12.7450   -3.5380   -2.1780 hc        1 MOL      0.132395
    138 H65       -12.6920   -1.7410   -2.3840 hc        1 MOL      0.132395
    139 H66       -11.9270   -2.7880   -3.5540 hc        1 MOL      0.132395
    140 N12       -10.3970    0.3980   -0.8400 n         1 MOL     -0.464147
    141 C43       -10.6650    1.8500   -0.7040 c3        1 MOL     -0.111573
    142 C44        -9.8790    2.5070    0.4220 c         1 MOL      0.651302
    143 O21        -9.5330    1.8570    1.4080 o         1 MOL     -0.530282
    144 C45       -12.1360    2.1650   -0.5720 c3        1 MOL     -0.128460
    145 C46       -12.8120    1.7320    0.7110 c3        1 MOL     -0.028079
    146 C47       -14.3130    2.1100    0.5860 c3        1 MOL      0.023217
    147 C48       -15.0020    1.7600    1.8710 c3        1 MOL      0.088001
    148 N13       -16.4940    1.5490    1.8430 n4        1 MOL     -0.195855
    149 H67       -10.2830   -0.0950    0.0220 hn        1 MOL      0.286311
    150 H68       -10.3190    2.3180   -1.6290 h1        1 MOL      0.124962
    151 H69       -12.6760    1.6200   -1.3470 hc        1 MOL      0.062696
    152 H70       -12.2410    3.2250   -0.7910 hc        1 MOL      0.062696
    153 H71       -12.3510    2.2450    1.5580 hc        1 MOL      0.047613
    154 H72       -12.7250    0.6480    0.8540 hc        1 MOL      0.047613
    155 H73       -14.8100    1.6120   -0.2450 hc        1 MOL      0.020579
    156 H74       -14.4270    3.1870    0.4310 hc        1 MOL      0.020579
    157 H75       -14.7090    2.4290    2.6900 hx        1 MOL      0.044521
    158 H76       -14.6100    0.7810    2.1470 hx        1 MOL      0.044521
    159 H77       -16.8120    1.2670    0.9300 hn        1 MOL      0.214188
    160 H78       -16.7340    0.8600    2.5490 hn        1 MOL      0.214188
    161 H79       -17.0520    2.3330    2.1460 hn        1 MOL      0.214188
    162 N14        -9.5380    3.7880    0.3330 n         1 MOL     -0.552847
    163 C49        -8.6440    4.5440    1.2690 c3        1 MOL      0.138519
    164 C50        -7.1470    4.2480    1.0420 c         1 MOL      0.434594
    165 O22        -6.4920    3.7930    2.0160 o         1 MOL     -0.540234
    166 C51        -8.9660    6.0280    1.3510 c3        1 MOL      0.047255
    167 C52        -7.9840    6.7480    2.3660 c3        1 MOL     -0.242570
    168 C53        -8.2790    8.2640    2.4370 c         1 MOL      0.711211
    169 O23        -7.8410    9.0850    1.5670 o         1 MOL     -0.649399
    170 O24        -9.0940    8.6270    3.2660 o         1 MOL     -0.649399
    171 H80        -9.8340    4.2570   -0.5090 hn        1 MOL      0.267065
    172 H81        -8.8580    4.1020    2.2440 h1        1 MOL      0.078997
    173 H82       -10.0080    6.1480    1.6410 hc        1 MOL      0.017530
    174 H83        -8.8880    6.5530    0.4040 hc        1 MOL      0.017530
    175 H84        -6.9670    6.5040    2.0370 hc        1 MOL      0.051522
    176 H85        -8.0910    6.4140    3.3970 hc        1 MOL      0.051522
    177 N15        -6.4850    4.2760   -0.1050 n         1 MOL     -0.330417
    178 C54        -6.8960    4.8700   -1.4310 c3        1 MOL     -0.129762
    179 H86        -6.0530    5.4080   -1.8660 h1        1 MOL      0.077701
    180 H87        -7.2050    4.0720   -2.1070 h1        1 MOL      0.077701
    181 H88        -7.7260    5.5600   -1.2800 h1        1 MOL      0.077701
    182 H89        -5.5910    3.8020   -0.1140 hn        1 MOL      0.286121
    183 Ca1         7.4500    3.9740   -0.8950 Ca        1 MOL      1.655799
    184 O25         7.5730    2.1630   -3.5520 oh        1 MOL     -0.660458
    185 H90         8.3110    2.1560   -4.1620 ho        1 MOL      0.336011
    186 H91         7.2050    3.0330   -3.6280 ho        1 MOL      0.336011
@<TRIPOS>BOND
     1    1    2 1   
     2    1    4 1   
     3    1    5 1   
     4    1    6 1   
     5    2    3 2   
     6    2    7 1   
     7    7    8 1   
     8    7   15 1   
     9    8    9 1   
    10    8   11 1   
    11    8   16 1   
    12    9   10 2   
    13    9   19 1   
    14   11   12 1   
    15   11   17 1   
    16   11   18 1   
    17   12   13 1   
    18   12   14 1   
    19   19   20 1   
    20   19   28 1   
    21   20   21 1   
    22   20   23 1   
    23   20   29 1   
    24   21   22 2   
    25   21   41 1   
    26   23   24 1   
    27   23   30 1   
    28   23   31 1   
    29   24   25 1   
    30   24   32 1   
    31   24   33 1   
    32   25   26 1   
    33   25   34 1   
    34   25   35 1   
    35   26   27 1   
    36   26   36 1   
    37   26   37 1   
    38   27   38 1   
    39   27   39 1   
    40   27   40 1   
    41   41   42 1   
    42   41   49 1   
    43   42   43 1   
    44   42   45 1   
    45   42   50 1   
    46   43   44 2   
    47   43   53 1   
    48   45   46 1   
    49   45   51 1   
    50   45   52 1   
    51   46   47 1   
    52   46   48 1   
    53   53   54 1   
    54   53   57 1   
    55   54   55 1   
    56   54   58 1   
    57   54   59 1   
    58   55   56 2   
    59   55   60 1   
    60   60   61 1   
    61   60   68 1   
    62   61   62 1   
    63   61   64 1   
    64   61   69 1   
    65   62   63 2   
    66   62   72 1   
    67   64   65 1   
    68   64   70 1   
    69   64   71 1   
    70   65   66 1   
    71   65   67 1   
    72   72   73 1   
    73   72   76 1   
    74   73   74 1   
    75   73   77 1   
    76   73   78 1   
    77   74   75 2   
    78   74   79 1   
    79   79   80 1   
    80   79   86 1   
    81   80   81 1   
    82   80   83 1   
    83   80   87 1   
    84   81   82 2   
    85   81   93 1   
    86   83   84 1   
    87   83   85 1   
    88   83   88 1   
    89   84   90 1   
    90   84   91 1   
    91   84   92 1   
    92   85   89 1   
    93   93   94 1   
    94   93  101 1   
    95   94   95 1   
    96   94   97 1   
    97   94  102 1   
    98   95   96 2   
    99   95  112 1   
   100   97   98 1   
   101   97   99 1   
   102   97  103 1   
   103   98  100 1   
   104   98  104 1   
   105   98  105 1   
   106   99  106 1   
   107   99  107 1   
   108   99  108 1   
   109  100  109 1   
   110  100  110 1   
   111  100  111 1   
   112  112  113 1   
   113  112  119 1   
   114  113  114 1   
   115  113  116 1   
   116  113  120 1   
   117  114  115 2   
   118  114  126 1   
   119  116  117 1   
   120  116  118 1   
   121  116  121 1   
   122  117  123 1   
   123  117  124 1   
   124  117  125 1   
   125  118  122 1   
   126  126  127 1   
   127  126  133 1   
   128  127  128 1   
   129  127  130 1   
   130  127  134 1   
   131  128  129 2   
   132  128  140 1   
   133  130  131 1   
   134  130  132 1   
   135  130  135 1   
   136  131  137 1   
   137  131  138 1   
   138  131  139 1   
   139  132  136 1   
   140  140  141 1   
   141  140  149 1   
   142  141  142 1   
   143  141  144 1   
   144  141  150 1   
   145  142  143 2   
   146  142  162 1   
   147  144  145 1   
   148  144  151 1   
   149  144  152 1   
   150  145  146 1   
   151  145  153 1   
   152  145  154 1   
   153  146  147 1   
   154  146  155 1   
   155  146  156 1   
   156  147  148 1   
   157  147  157 1   
   158  147  158 1   
   159  148  159 1   
   160  148  160 1   
   161  148  161 1   
   162  162  163 1   
   163  162  171 1   
   164  163  164 1   
   165  163  166 1   
   166  163  172 1   
   167  164  165 2   
   168  164  177 1   
   169  166  167 1   
   170  166  173 1   
   171  166  174 1   
   172  167  168 1   
   173  167  175 1   
   174  167  176 1   
   175  168  169 1   
   176  168  170 1   
   177  177  178 1   
   178  177  182 1   
   179  178  179 1   
   180  178  180 1   
   181  178  181 1   
   182  184  185 1   
   183  184  186 1   
@<TRIPOS>SUBSTRUCTURE
     1 MOL         1 TEMP              0 ****  ****    0 ROOT
