@<TRIPOS>MOLECULE
MOL
  179   176     1     0     0
SMALL
resp


@<TRIPOS>ATOM
      1 C1         -0.2280   -2.6410    6.1740 c3        1 MOL     -0.471382
      2 C2         -0.0480   -2.9560    4.6920 c         1 MOL      0.742330
      3 O1         -0.9860   -2.8910    3.8810 o         1 MOL     -0.565101
      4 H1         -0.2880   -1.5610    6.3110 hc        1 MOL      0.135764
      5 H2         -1.1460   -3.1040    6.5360 hc        1 MOL      0.135764
      6 H3          0.6220   -3.0300    6.7350 hc        1 MOL      0.135764
      7 N1          1.2250   -3.1210    4.2720 n         1 MOL     -0.585847
      8 C3          1.5800   -2.9790    2.8760 c3        1 MOL     -0.078247
      9 C4          1.4910   -4.2610    2.1000 c         1 MOL      0.720359
     10 O2          1.6820   -5.3180    2.6640 o         1 MOL     -0.554223
     11 C5          3.0720   -2.4410    2.8010 c3        1 MOL     -0.159727
     12 C6          3.2820   -1.5780    1.5470 c         1 MOL      0.557079
     13 O3          3.6730   -0.4120    1.5630 o         1 MOL     -0.683398
     14 O4          2.8910   -2.0840    0.5040 o         1 MOL     -0.683398
     15 H4          1.8950   -3.0320    5.0270 hn        1 MOL      0.338616
     16 H5          0.9390   -2.2330    2.4110 h1        1 MOL      0.108917
     17 H6          3.8490   -3.2060    2.7550 hc        1 MOL      0.098377
     18 H7          3.3780   -1.8730    3.6770 hc        1 MOL      0.098377
     19 N2          1.2610   -4.1890    0.7610 n         1 MOL     -0.528531
     20 C7          1.2420   -5.2980   -0.2310 c3        1 MOL     -0.001452
     21 C8          2.6100   -5.4110   -1.0400 c         1 MOL      0.505844
     22 O5          2.8190   -6.3520   -1.8010 o         1 MOL     -0.579209
     23 C9          0.0130   -5.2470   -1.1210 c3        1 MOL      0.247722
     24 C10        -0.4070   -6.5480   -1.8310 c3        1 MOL     -0.124920
     25 C11        -1.8510   -6.4070   -2.3960 c3        1 MOL     -0.038757
     26 C12        -2.3020   -7.8000   -2.8930 c3        1 MOL      0.131790
     27 N3         -3.6170   -7.7810   -3.4540 n4        1 MOL     -0.366491
     28 H8          1.2950   -3.2580    0.3660 hn        1 MOL      0.283290
     29 H9          1.2500   -6.2270    0.3390 h1        1 MOL      0.080539
     30 H10         0.0650   -4.4740   -1.8910 hc        1 MOL     -0.050181
     31 H11        -0.8090   -4.8600   -0.5200 hc        1 MOL     -0.050181
     32 H12        -0.3480   -7.3820   -1.1330 hc        1 MOL      0.055079
     33 H13         0.1780   -6.6780   -2.7430 hc        1 MOL      0.055079
     34 H14        -1.9490   -5.8030   -3.3030 hc        1 MOL      0.040230
     35 H15        -2.5710   -6.0730   -1.6440 hc        1 MOL      0.040230
     36 H16        -2.0350   -8.4610   -2.0710 hx        1 MOL      0.045060
     37 H17        -1.5870   -8.1280   -3.6600 hx        1 MOL      0.045060
     38 H18        -4.0060   -8.7110   -3.5000 hn        1 MOL      0.278230
     39 H19        -4.1800   -7.3310   -2.7440 hn        1 MOL      0.278230
     40 H20        -3.6700   -7.2820   -4.3330 hn        1 MOL      0.278230
     41 N4          3.5540   -4.4810   -0.8650 n         1 MOL     -0.259087
     42 C13         4.8330   -4.4150   -1.6190 c3        1 MOL      0.034637
     43 C14         5.9780   -3.8800   -0.6930 c         1 MOL      0.324126
     44 O6          7.1370   -3.9730   -1.0030 o         1 MOL     -0.504439
     45 C15         4.7650   -3.4800   -2.8650 c3        1 MOL     -0.278449
     46 C16         4.3490   -2.1110   -2.6050 c         1 MOL      0.768120
     47 O7          5.0120   -1.4540   -1.7450 o         1 MOL     -0.736739
     48 O8          3.2320   -1.6860   -2.9640 o         1 MOL     -0.736739
     49 H21         3.2870   -3.6510   -0.3410 hn        1 MOL      0.142025
     50 H22         5.1000   -5.4360   -1.8820 h1        1 MOL      0.134727
     51 H23         4.1300   -3.9120   -3.6310 hc        1 MOL      0.083658
     52 H24         5.7760   -3.4600   -3.2660 hc        1 MOL      0.083658
     53 N5          5.5900   -3.3000    0.4510 n         1 MOL     -0.029755
     54 C17         6.5400   -2.9460    1.5070 c3        1 MOL     -0.163036
     55 C18         7.1180   -1.6110    1.2470 c         1 MOL      0.560446
     56 O9          7.9430   -1.2200    2.0700 o         1 MOL     -0.566475
     57 H25         4.6050   -3.4050    0.6800 hn        1 MOL      0.027482
     58 H26         7.3010   -3.7320    1.5580 h1        1 MOL      0.102891
     59 H27         6.0810   -2.9720    2.4890 h1        1 MOL      0.102891
     60 N6          6.7860   -0.8620    0.1950 n         1 MOL     -0.266955
     61 C19         7.4990    0.3800   -0.0920 c3        1 MOL      0.013936
     62 C20         6.4870    1.5370   -0.4060 c         1 MOL      0.564346
     63 O10         5.2770    1.2920   -0.5440 o         1 MOL     -0.493928
     64 C21         8.6480    0.1840   -1.0930 c3        1 MOL     -0.341937
     65 C22         9.7950   -0.8880   -0.7650 c         1 MOL      0.772057
     66 N7          9.8340   -1.9470   -1.5770 n         1 MOL     -0.879558
     67 O11        10.6670   -0.7270    0.0710 o         1 MOL     -0.543070
     68 H28         6.1510   -1.1760   -0.5270 hn        1 MOL      0.280552
     69 H29         7.9560    0.7300    0.8350 h1        1 MOL      0.056517
     70 H30         9.1800    1.1120   -1.2850 hc        1 MOL      0.068158
     71 H31         8.1660   -0.0120   -2.0570 hc        1 MOL      0.068158
     72 H32         9.1480   -2.0490   -2.3240 hn        1 MOL      0.391142
     73 H33        10.3600   -2.7710   -1.3200 hn        1 MOL      0.391142
     74 N8          6.9660    2.7700   -0.3400 n         1 MOL     -0.437413
     75 C23         6.1760    3.9660   -0.7290 c3        1 MOL     -0.070658
     76 C24         4.9110    4.2180    0.1320 c         1 MOL      0.602591
     77 O12         5.0300    4.0560    1.3290 o         1 MOL     -0.486995
     78 H34         7.9350    2.8930   -0.0720 hn        1 MOL      0.335334
     79 H35         5.9110    3.8510   -1.7850 h1        1 MOL      0.070040
     80 H36         6.8270    4.8380   -0.7010 h1        1 MOL      0.070040
     81 N9          3.8380    4.7450   -0.4940 n         1 MOL     -0.512859
     82 C25         2.5150    4.9310    0.1630 c3        1 MOL     -0.151679
     83 C26         1.9780    3.5400    0.4450 c         1 MOL      0.842212
     84 O13         2.4330    2.5140   -0.0670 o         1 MOL     -0.635731
     85 C27         1.6740    5.7520   -0.8530 c3        1 MOL     -0.167623
     86 C28         2.2910    7.1220   -0.9700 ca        1 MOL      0.184505
     87 C29         2.1450    8.0020    0.1230 ca        1 MOL     -0.211176
     88 C30         2.8610    7.5970   -2.1660 ca        1 MOL     -0.211176
     89 C31         2.6850    9.3420    0.1210 ca        1 MOL     -0.207178
     90 C32         3.4410    8.9000   -2.2160 ca        1 MOL     -0.207178
     91 C33         3.3300    9.7960   -1.0520 ca        1 MOL      0.266049
     92 O14         3.7490   11.1460   -1.1870 oh        1 MOL     -0.477153
     93 H37         3.8990    4.9520   -1.4860 hn        1 MOL      0.270301
     94 H38         2.7170    5.5640    1.0240 h1        1 MOL      0.126645
     95 H39         0.6350    5.7650   -0.5200 hc        1 MOL      0.061771
     96 H40         1.7100    5.1590   -1.7570 hc        1 MOL      0.061771
     97 H41         1.7430    7.5750    1.0370 ha        1 MOL      0.143506
     98 H42         2.8130    7.0340   -3.0860 ha        1 MOL      0.143506
     99 H43         2.6780    9.9250    1.0300 ha        1 MOL      0.159915
    100 H44         4.0140    9.2320   -3.0740 ha        1 MOL      0.159915
    101 H45         3.5400   11.6630   -0.4090 ho        1 MOL      0.374551
    102 N10         0.9550    3.4670    1.2570 n         1 MOL     -0.605228
    103 C34         0.1530    2.3950    1.8640 c3        1 MOL      0.170143
    104 C35        -0.1510    1.1840    0.9410 c         1 MOL      0.170588
    105 O15         0.7120    0.4400    0.4920 o         1 MOL     -0.413442
    106 C36         0.7490    1.8520    3.1350 c3        1 MOL      0.202631
    107 C37        -0.0120    0.7450    3.8580 c3        1 MOL     -0.104495
    108 C38         1.0730    2.9860    4.1530 c3        1 MOL     -0.301540
    109 C39        -1.3050    1.0660    4.5470 c3        1 MOL     -0.412796
    110 H46         0.8460    4.3390    1.7630 hn        1 MOL      0.289730
    111 H47        -0.8270    2.7740    2.1550 h1        1 MOL      0.037850
    112 H48         1.7200    1.4650    2.8250 hc        1 MOL      0.026898
    113 H49         0.6710    0.3090    4.6000 hc        1 MOL      0.080895
    114 H50        -0.2590   -0.0280    3.1440 hc        1 MOL      0.080895
    115 H51         0.1430    3.4240    4.5120 hc        1 MOL      0.075172
    116 H52         1.5820    2.4500    4.9490 hc        1 MOL      0.075172
    117 H53         1.7700    3.7050    3.7340 hc        1 MOL      0.075172
    118 H54        -1.1260    1.7830    5.3450 hc        1 MOL      0.114649
    119 H55        -1.9720    1.3970    3.7530 hc        1 MOL      0.114649
    120 H56        -1.7380    0.1580    4.9850 hc        1 MOL      0.114649
    121 N11        -1.4750    0.8680    0.7080 n         1 MOL     -0.049339
    122 C40        -2.0520   -0.3650    0.2080 c3        1 MOL     -0.421152
    123 C41        -3.5730   -0.3670   -0.2180 c         1 MOL      0.780297
    124 O16        -4.0510   -1.4440   -0.6190 o         1 MOL     -0.594790
    125 C42        -1.8540   -1.5370    1.1390 c3        1 MOL      0.406079
    126 O17        -2.4630   -1.3570    2.3730 oh        1 MOL     -0.572229
    127 H57        -2.1040    1.6370    0.8890 hn        1 MOL      0.166656
    128 H58        -1.4460   -0.4640   -0.7000 h1        1 MOL      0.139906
    129 H59        -0.8090   -1.8600    1.1650 h1        1 MOL     -0.019556
    130 H60        -2.3630   -2.3870    0.6910 h1        1 MOL     -0.019556
    131 H61        -1.9020   -1.8040    3.0070 ho        1 MOL      0.347123
    132 N12        -4.2310    0.7580   -0.2000 n         1 MOL     -0.730752
    133 C43        -5.6450    0.8780   -0.5160 c3        1 MOL      0.342491
    134 C44        -5.9240    1.0340   -2.0600 c         1 MOL      0.504907
    135 O18        -5.2930    1.8650   -2.7720 o         1 MOL     -0.545745
    136 C45        -6.3700    1.9230    0.3680 c3        1 MOL     -0.264021
    137 H62        -3.8210    1.5840    0.2170 hn        1 MOL      0.353140
    138 H63        -6.1120   -0.0620   -0.2350 h1        1 MOL      0.074282
    139 H64        -7.3790    2.0150   -0.0340 hc        1 MOL      0.080343
    140 H65        -6.4260    1.5260    1.3850 hc        1 MOL      0.080343
    141 H66        -5.8610    2.8820    0.3460 hc        1 MOL      0.080343
    142 N13        -7.0520    0.4240   -2.5490 n         1 MOL     -0.605904
    143 C46        -8.1580   -0.2540   -1.8880 c3        1 MOL      0.346886
    144 C47        -9.4780    0.0930   -2.5600 c         1 MOL      0.498407
    145 O19        -9.4450    0.3120   -3.7720 o         1 MOL     -0.552420
    146 C48        -7.8990   -1.8160   -1.9650 c3        1 MOL     -0.417391
    147 H67        -7.0000    0.4090   -3.5560 hn        1 MOL      0.334839
    148 H68        -8.2200    0.0350   -0.8400 h1        1 MOL     -0.037423
    149 H69        -8.8230   -2.3390   -1.6870 hc        1 MOL      0.114881
    150 H70        -7.7890   -2.0380   -3.0320 hc        1 MOL      0.114881
    151 H71        -7.0230   -2.1390   -1.4040 hc        1 MOL      0.114881
    152 N14       -10.6450    0.2890   -1.9130 n         1 MOL     -0.394351
    153 C49       -10.9020    0.3060   -0.4550 c3        1 MOL     -0.295390
    154 C50       -10.2160    1.5460    0.2170 c         1 MOL      0.482696
    155 O20        -9.5660    1.3280    1.2950 o         1 MOL     -0.541446
    156 C51       -12.3840    0.1250   -0.1320 c3        1 MOL      0.144794
    157 C52       -12.6180   -0.0380    1.3810 c3        1 MOL     -0.242989
    158 C53       -14.1150   -0.1350    1.6040 c         1 MOL      0.634072
    159 O21       -14.6960    0.9520    1.8800 o         1 MOL     -0.638674
    160 O22       -14.7180   -1.1770    1.1850 o         1 MOL     -0.638674
    161 H72       -11.3410    0.7170   -2.4970 hn        1 MOL      0.280508
    162 H73       -10.4330   -0.5580    0.0180 h1        1 MOL      0.177212
    163 H74       -12.6550   -0.7910   -0.6490 hc        1 MOL      0.027517
    164 H75       -13.0530    0.9070   -0.5010 hc        1 MOL      0.027517
    165 H76       -12.1950    0.8240    1.9050 hc        1 MOL      0.057734
    166 H77       -12.1690   -0.9600    1.7480 hc        1 MOL      0.057734
    167 N15       -10.1720    2.7080   -0.4300 n         1 MOL     -0.255860
    168 C54        -9.5420    3.9710    0.0750 c3        1 MOL     -0.055315
    169 H78        -9.2770    3.8490    1.1250 h1        1 MOL      0.067011
    170 H79        -8.6430    4.1850   -0.5040 h1        1 MOL      0.067011
    171 H80       -10.2470    4.7960   -0.0290 h1        1 MOL      0.067011
    172 H81       -10.5740    2.6380   -1.3570 hn        1 MOL      0.248263
    173 Ca1         2.9670    0.0610   -1.0200 Ca        1 MOL      1.735917
    174 O23         0.9460    1.1570   -2.3350 oh        1 MOL     -0.854746
    175 H82         0.5930    0.9260   -3.1980 ho        1 MOL      0.418486
    176 H83         0.5450    2.0060   -2.1390 ho        1 MOL      0.418486
    177 O24         3.8980    1.5750   -3.1000 oh        1 MOL     -0.854746
    178 H84         3.9250    2.5350   -3.0760 ho        1 MOL      0.418486
    179 H85         3.6270    1.3750   -3.9950 ho        1 MOL      0.418486
@<TRIPOS>BOND
     1    1    2 1   
     2    1    4 1   
     3    1    5 1   
     4    1    6 1   
     5    2    3 2   
     6    2    7 1   
     7    7    8 1   
     8    7   15 1   
     9    8    9 1   
    10    8   11 1   
    11    8   16 1   
    12    9   10 2   
    13    9   19 1   
    14   11   12 1   
    15   11   17 1   
    16   11   18 1   
    17   12   13 1   
    18   12   14 1   
    19   19   20 1   
    20   19   28 1   
    21   20   21 1   
    22   20   23 1   
    23   20   29 1   
    24   21   22 2   
    25   21   41 1   
    26   23   24 1   
    27   23   30 1   
    28   23   31 1   
    29   24   25 1   
    30   24   32 1   
    31   24   33 1   
    32   25   26 1   
    33   25   34 1   
    34   25   35 1   
    35   26   27 1   
    36   26   36 1   
    37   26   37 1   
    38   27   38 1   
    39   27   39 1   
    40   27   40 1   
    41   41   42 1   
    42   41   49 1   
    43   42   43 1   
    44   42   45 1   
    45   42   50 1   
    46   43   44 2   
    47   43   53 1   
    48   45   46 1   
    49   45   51 1   
    50   45   52 1   
    51   46   47 1   
    52   46   48 1   
    53   53   54 1   
    54   53   57 1   
    55   54   55 1   
    56   54   58 1   
    57   54   59 1   
    58   55   56 2   
    59   55   60 1   
    60   60   61 1   
    61   60   68 1   
    62   61   62 1   
    63   61   64 1   
    64   61   69 1   
    65   62   63 2   
    66   62   74 1   
    67   64   65 1   
    68   64   70 1   
    69   64   71 1   
    70   65   66 1   
    71   65   67 2   
    72   66   72 1   
    73   66   73 1   
    74   74   75 1   
    75   74   78 1   
    76   75   76 1   
    77   75   79 1   
    78   75   80 1   
    79   76   77 2   
    80   76   81 1   
    81   81   82 1   
    82   81   93 1   
    83   82   83 1   
    84   82   85 1   
    85   82   94 1   
    86   83   84 2   
    87   83  102 1   
    88   85   86 1   
    89   85   95 1   
    90   85   96 1   
    91   86   87 ar  
    92   86   88 ar  
    93   87   89 ar  
    94   87   97 1   
    95   88   90 ar  
    96   88   98 1   
    97   89   91 ar  
    98   89   99 1   
    99   90   91 ar  
   100   90  100 1   
   101   91   92 1   
   102   92  101 1   
   103  102  103 1   
   104  102  110 1   
   105  103  104 1   
   106  103  106 1   
   107  103  111 1   
   108  104  105 2   
   109  104  121 1   
   110  106  107 1   
   111  106  108 1   
   112  106  112 1   
   113  107  109 1   
   114  107  113 1   
   115  107  114 1   
   116  108  115 1   
   117  108  116 1   
   118  108  117 1   
   119  109  118 1   
   120  109  119 1   
   121  109  120 1   
   122  121  122 1   
   123  121  127 1   
   124  122  123 1   
   125  122  125 1   
   126  122  128 1   
   127  123  124 2   
   128  123  132 1   
   129  125  126 1   
   130  125  129 1   
   131  125  130 1   
   132  126  131 1   
   133  132  133 1   
   134  132  137 1   
   135  133  134 1   
   136  133  136 1   
   137  133  138 1   
   138  134  135 2   
   139  134  142 1   
   140  136  139 1   
   141  136  140 1   
   142  136  141 1   
   143  142  143 1   
   144  142  147 1   
   145  143  144 1   
   146  143  146 1   
   147  143  148 1   
   148  144  145 2   
   149  144  152 1   
   150  146  149 1   
   151  146  150 1   
   152  146  151 1   
   153  152  153 1   
   154  152  161 1   
   155  153  154 1   
   156  153  156 1   
   157  153  162 1   
   158  154  155 2   
   159  154  167 1   
   160  156  157 1   
   161  156  163 1   
   162  156  164 1   
   163  157  158 1   
   164  157  165 1   
   165  157  166 1   
   166  158  159 1   
   167  158  160 1   
   168  167  168 1   
   169  167  172 1   
   170  168  169 1   
   171  168  170 1   
   172  168  171 1   
   173  174  175 1   
   174  174  176 1   
   175  177  178 1   
   176  177  179 1   
@<TRIPOS>SUBSTRUCTURE
     1 MOL         1 TEMP              0 ****  ****    0 ROOT
