@<TRIPOS>MOLECULE
MOL
  192   187     1     0     0
SMALL
resp


@<TRIPOS>ATOM
      1 C1         -5.6310   -4.8580    3.3730 c3        1 MOL     -0.208255
      2 C2         -5.2490   -3.7730    2.3070 c         1 MOL      0.753131
      3 O1         -4.8180   -4.0510    1.1870 o         1 MOL     -0.609429
      4 H1         -6.5260   -5.3880    3.0460 hc        1 MOL      0.058070
      5 H2         -4.8090   -5.5670    3.4820 hc        1 MOL      0.058070
      6 H3         -5.8250   -4.3750    4.3310 hc        1 MOL      0.058070
      7 N1         -5.3320   -2.4640    2.6270 n         1 MOL     -0.619133
      8 C3         -4.9040   -1.2180    1.9100 c3        1 MOL      0.111897
      9 C4         -3.3800   -0.9930    1.8660 c         1 MOL      0.104718
     10 O2         -2.9600   -0.1570    1.0990 o         1 MOL     -0.250791
     11 C5         -5.5340    0.1170    2.4110 c3        1 MOL     -0.174633
     12 C6         -5.6280    0.4180    3.8270 c         1 MOL      0.640664
     13 O3         -5.0560    1.4140    4.3820 o         1 MOL     -0.682453
     14 O4         -6.3080   -0.4110    4.4920 o         1 MOL     -0.682453
     15 H4         -5.5660   -2.3030    3.5890 hn        1 MOL      0.323534
     16 H5         -5.0940   -1.4220    0.8550 h1        1 MOL      0.123570
     17 H6         -6.5240    0.2080    1.9470 hc        1 MOL      0.105637
     18 H7         -4.9360    0.9240    2.0000 hc        1 MOL      0.105637
     19 N2         -2.6610   -1.8080    2.6650 n         1 MOL     -0.176808
     20 C7         -1.1710   -1.7680    2.7740 c3        1 MOL     -0.067573
     21 C8         -0.5220   -2.9040    2.0070 c         1 MOL      0.599633
     22 O5         -0.8460   -4.0710    2.2000 o         1 MOL     -0.554081
     23 C9         -0.6620   -1.6940    4.2030 c3        1 MOL     -0.273025
     24 C10        -0.5740   -0.2940    4.9570 c3        1 MOL     -0.096481
     25 C11        -1.9820    0.1310    5.3870 c3        1 MOL     -0.109910
     26 C12        -1.9340    1.5200    6.1130 c3        1 MOL      0.056516
     27 N3         -3.2930    1.9610    6.3680 n4        1 MOL     -0.328878
     28 H8         -3.1170   -2.4050    3.3410 hn        1 MOL      0.248301
     29 H9         -0.9640   -0.7950    2.3250 h1        1 MOL      0.171106
     30 H10         0.3160   -2.1840    4.2710 hc        1 MOL      0.123334
     31 H11        -1.3230   -2.3330    4.7960 hc        1 MOL      0.123334
     32 H12        -0.1700    0.4290    4.2380 hc        1 MOL      0.063669
     33 H13         0.0750   -0.4040    5.8300 hc        1 MOL      0.063669
     34 H14        -2.1880   -0.6980    6.0780 hc        1 MOL      0.062526
     35 H15        -2.6540    0.1160    4.5270 hc        1 MOL      0.062526
     36 H16        -1.5190    2.3350    5.5050 hx        1 MOL      0.074688
     37 H17        -1.3010    1.4710    6.9950 hx        1 MOL      0.074688
     38 H18        -3.7160    1.3400    7.0390 hn        1 MOL      0.290379
     39 H19        -3.2520    2.8710    6.8000 hn        1 MOL      0.290379
     40 H20        -3.9630    1.9600    5.6150 hn        1 MOL      0.290379
     41 N4          0.3920   -2.6270    1.0840 n         1 MOL     -0.470725
     42 C13         0.9750   -1.3340    0.6610 c3        1 MOL     -0.014739
     43 C14         1.5130   -0.3810    1.7330 c         1 MOL      0.328334
     44 O6          0.8960    0.6450    2.0570 o         1 MOL     -0.476551
     45 C15         0.2190   -0.6260   -0.4820 c3        1 MOL     -0.048212
     46 C16        -0.0060   -1.4260   -1.8160 c         1 MOL      0.776283
     47 O7          0.1130   -2.6390   -1.9220 o         1 MOL     -0.816564
     48 O8         -0.5300   -0.7640   -2.7780 o         1 MOL     -0.816564
     49 H21         0.5910   -3.4050    0.4750 hn        1 MOL      0.328135
     50 H22         1.8330   -1.6500    0.0660 h1        1 MOL      0.108637
     51 H23         0.7290    0.2900   -0.7780 hc        1 MOL      0.036978
     52 H24        -0.7160   -0.1030   -0.2640 hc        1 MOL      0.036978
     53 N5          2.6290   -0.7120    2.4000 n         1 MOL     -0.343615
     54 C17         3.3830   -1.9040    2.2330 c3        1 MOL      0.163183
     55 C18         4.4530   -2.1320    3.3310 c         1 MOL      0.479545
     56 O9          4.3220   -1.5710    4.4550 o         1 MOL     -0.553622
     57 H25         3.0100   -0.0730    3.0750 hn        1 MOL      0.288557
     58 H26         3.8530   -1.8570    1.2520 h1        1 MOL      0.010672
     59 H27         2.7110   -2.7620    2.2200 h1        1 MOL      0.010672
     60 N6          5.4740   -2.9440    3.0730 n         1 MOL     -0.394446
     61 C19         5.8480   -3.7560    1.8640 c3        1 MOL      0.075598
     62 C20         6.5700   -2.9110    0.7590 c         1 MOL      0.419543
     63 O10         7.0000   -1.7970    0.9220 o         1 MOL     -0.460755
     64 C21         6.7830   -4.8790    2.3740 c3        1 MOL     -0.163480
     65 C22         8.0460   -4.3640    3.1660 c         1 MOL      0.718244
     66 O11         7.9210   -4.1480    4.3880 o         1 MOL     -0.669107
     67 O12         9.1850   -4.2520    2.5850 o         1 MOL     -0.669107
     68 H28         6.1630   -2.9750    3.8080 hn        1 MOL      0.281896
     69 H29         4.9390   -4.2240    1.4870 h1        1 MOL      0.018024
     70 H30         7.1530   -5.4160    1.4930 hc        1 MOL      0.015637
     71 H31         6.2620   -5.5430    3.0570 hc        1 MOL      0.015637
     72 N7          6.7100   -3.4490   -0.4100 n         1 MOL     -0.304230
     73 C23         7.5340   -2.7270   -1.4310 c3        1 MOL     -0.214601
     74 C24         6.7910   -1.7330   -2.3430 c         1 MOL      0.527300
     75 O13         7.0790   -1.6290   -3.5200 o         1 MOL     -0.542191
     76 H32         6.3200   -4.3650   -0.6040 hn        1 MOL      0.263252
     77 H33         7.9150   -3.5130   -2.0660 h1        1 MOL      0.145294
     78 H34         8.4100   -2.2370   -1.0120 h1        1 MOL      0.145294
     79 N8          5.7430   -1.0750   -1.7390 n         1 MOL     -0.333171
     80 C25         4.8780    0.0110   -2.3770 c3        1 MOL      0.021969
     81 C26         4.6510    0.9880   -1.2190 c         1 MOL      0.622296
     82 O14         4.3760    0.5720   -0.0970 o         1 MOL     -0.475561
     83 C27         3.6540   -0.6220   -2.9450 c3        1 MOL      0.043248
     84 C28         2.5570    0.3070   -3.4510 c3        1 MOL     -0.125031
     85 O15         3.0480   -1.2900   -1.8650 oh        1 MOL     -0.467112
     86 H35         5.6230   -1.2880   -0.7560 hn        1 MOL      0.154165
     87 H36         5.4080    0.5470   -3.1530 h1        1 MOL      0.066831
     88 H37         4.0010   -1.3600   -3.6750 h1        1 MOL      0.080636
     89 H38         3.5560   -2.0840   -1.6670 ho        1 MOL      0.291971
     90 H39         1.8670   -0.3630   -3.9520 hc        1 MOL      0.040335
     91 H40         2.0840    0.7640   -2.5780 hc        1 MOL      0.040335
     92 H41         2.9380    1.0060   -4.1940 hc        1 MOL      0.040335
     93 N9          5.0070    2.2970   -1.4130 n         1 MOL     -0.302861
     94 C29         5.3990    3.1960   -0.2980 c3        1 MOL     -0.582018
     95 C30         4.1940    4.1710   -0.0010 c         1 MOL      0.664657
     96 O16         4.2750    5.1740    0.6960 o         1 MOL     -0.569144
     97 C31         6.7500    3.9120   -0.4750 c3        1 MOL      0.403108
     98 C32         6.6410    4.8350   -1.7270 c3        1 MOL     -0.221601
     99 C33         7.8350    2.9210   -0.4620 c3        1 MOL     -0.090781
    100 C34         7.8650    5.6190   -2.0900 c3        1 MOL     -0.215851
    101 H42         5.2630    2.6190   -2.3430 hn        1 MOL      0.220509
    102 H43         5.5390    2.6100    0.6130 h1        1 MOL      0.232033
    103 H44         6.9630    4.5120    0.4120 hc        1 MOL      0.005866
    104 H45         5.8940    5.6110   -1.5700 hc        1 MOL      0.103452
    105 H46         6.3380    4.3740   -2.6710 hc        1 MOL      0.103452
    106 H47         7.8730    2.4400    0.5160 hc        1 MOL      0.024735
    107 H48         7.8720    2.2150   -1.2860 hc        1 MOL      0.024735
    108 H49         8.7220    3.5620   -0.4720 hc        1 MOL      0.024735
    109 H50         8.1680    6.1440   -1.1900 hc        1 MOL      0.060189
    110 H51         8.7260    5.0340   -2.4150 hc        1 MOL      0.060189
    111 H52         7.6400    6.3070   -2.9000 hc        1 MOL      0.060189
    112 N10         3.0810    3.9250   -0.6810 n         1 MOL     -0.273142
    113 C35         1.9030    4.7520   -0.4150 c3        1 MOL     -0.364572
    114 C36         0.6340    3.8840   -0.4380 c         1 MOL      0.845584
    115 O17         0.4710    3.1670   -1.3900 o         1 MOL     -0.508548
    116 C37         1.7960    5.9500   -1.3120 c3        1 MOL      0.407733
    117 C38         2.1420    5.6770   -2.7610 c3        1 MOL     -0.121323
    118 O18         2.8230    6.8580   -0.9200 oh        1 MOL     -0.632849
    119 H53         3.0900    3.2940   -1.4720 hn        1 MOL      0.211887
    120 H54         1.9730    5.1320    0.6100 h1        1 MOL      0.123042
    121 H55         0.7520    6.2550   -1.3080 h1        1 MOL     -0.005596
    122 H56         3.3500    6.4110   -0.2490 ho        1 MOL      0.384924
    123 H57         3.1780    5.3510   -2.8420 hc        1 MOL      0.021055
    124 H58         1.4130    4.9680   -3.1540 hc        1 MOL      0.021055
    125 H59         2.1930    6.6470   -3.2600 hc        1 MOL      0.021055
    126 N11        -0.1220    3.8850    0.6670 n         1 MOL     -0.757077
    127 C39        -1.2560    2.8550    0.8510 c3        1 MOL      0.018975
    128 C40        -2.4170    3.0910   -0.1080 c         1 MOL      0.438647
    129 O19        -2.7190    4.2000   -0.4990 o         1 MOL     -0.522781
    130 C41        -1.7910    2.8400    2.2320 c3        1 MOL      0.440626
    131 C42        -2.7600    3.9260    2.6130 c3        1 MOL     -0.464645
    132 O20        -0.7290    2.8820    3.1340 oh        1 MOL     -0.635652
    133 H60         0.2470    4.4070    1.4540 hn        1 MOL      0.381489
    134 H61        -0.8150    1.8640    0.6830 h1        1 MOL      0.084068
    135 H62        -2.3210    1.8870    2.3020 h1        1 MOL      0.033255
    136 H63        -0.2160    2.0710    3.0780 ho        1 MOL      0.400963
    137 H64        -3.7670    3.8180    2.2060 hc        1 MOL      0.113515
    138 H65        -2.8680    3.9880    3.6970 hc        1 MOL      0.113515
    139 H66        -2.3980    4.8940    2.2720 hc        1 MOL      0.113515
    140 N12        -3.1310    2.0460   -0.5420 n         1 MOL     -0.370795
    141 C43        -4.3390    2.1500   -1.4540 c3        1 MOL      0.203536
    142 C44        -4.4440    0.9510   -2.3810 c         1 MOL      0.335006
    143 O21        -4.8300    1.0840   -3.5190 o         1 MOL     -0.559611
    144 C45        -5.5040    2.2220   -0.4020 c3        1 MOL      0.127861
    145 C46        -6.7660    3.0610   -0.8690 c3        1 MOL      0.156858
    146 C47        -6.4560    4.6030   -0.9280 c3        1 MOL     -0.374169
    147 C48        -5.7050    5.2880    0.2450 c3        1 MOL      0.071389
    148 N13        -6.3530    5.2750    1.5900 n4        1 MOL     -0.260514
    149 H67        -2.8660    1.1630   -0.1250 hn        1 MOL      0.171091
    150 H68        -4.3890    3.0210   -2.1050 h1        1 MOL      0.062443
    151 H69        -5.2450    2.6640    0.5570 hc        1 MOL     -0.120069
    152 H70        -5.8470    1.2080   -0.1720 hc        1 MOL     -0.120069
    153 H71        -7.5020    2.9050   -0.0750 hc        1 MOL      0.001701
    154 H72        -7.2970    2.7200   -1.7580 hc        1 MOL      0.001701
    155 H73        -7.3210    5.2570   -1.0420 hc        1 MOL      0.122123
    156 H74        -5.8360    4.7630   -1.8090 hc        1 MOL      0.122123
    157 H75        -5.6000    6.3570    0.0590 hx        1 MOL      0.085273
    158 H76        -4.6940    4.8920    0.3280 hx        1 MOL      0.085273
    159 H77        -7.3320    5.5080    1.5460 hn        1 MOL      0.275725
    160 H78        -6.3680    4.3600    2.0230 hn        1 MOL      0.275725
    161 H79        -5.9450    5.9770    2.1860 hn        1 MOL      0.275725
    162 N14        -4.3270   -0.2750   -1.8380 n         1 MOL     -0.036181
    163 C49        -4.6720   -1.5920   -2.4950 c3        1 MOL     -0.041529
    164 C50        -6.2130   -1.9070   -2.2810 c         1 MOL      0.493908
    165 O22        -6.6950   -1.7840   -1.1640 o         1 MOL     -0.504753
    166 C51        -3.8360   -2.7060   -1.8870 c3        1 MOL     -0.202891
    167 C52        -4.1680   -4.0940   -2.3730 c3        1 MOL     -0.093876
    168 C53        -4.1950   -4.2140   -3.8550 c         1 MOL      0.435208
    169 O23        -3.3680   -3.5380   -4.5380 o         1 MOL     -0.637907
    170 O24        -5.1220   -4.8070   -4.4140 o         1 MOL     -0.637907
    171 H80        -3.9280   -0.4000   -0.9110 hn        1 MOL      0.071419
    172 H81        -4.5900   -1.5140   -3.5760 h1        1 MOL      0.014017
    173 H82        -3.9390   -2.6400   -0.8110 hc        1 MOL      0.087777
    174 H83        -2.7760   -2.5450   -2.0800 hc        1 MOL      0.087777
    175 H84        -5.0260   -4.5390   -1.8820 hc        1 MOL      0.091426
    176 H85        -3.2810   -4.6890   -2.1200 hc        1 MOL      0.091426
    177 N15        -6.9830   -2.2800   -3.3400 n         1 MOL     -0.261294
    178 C54        -8.4560   -2.3610   -3.2000 c3        1 MOL     -0.158428
    179 H86        -8.8260   -3.2260   -3.7510 h1        1 MOL      0.085421
    180 H87        -8.7160   -2.4640   -2.1460 h1        1 MOL      0.085421
    181 H88        -8.9110   -1.4550   -3.6000 h1        1 MOL      0.085421
    182 H89        -6.6130   -2.3160   -4.2800 hn        1 MOL      0.332154
    183 Ca1        -1.0150   -2.5530   -4.4930 Ca        1 MOL      1.684375
    184 O25         1.6050   -2.9380   -4.2000 oh        1 MOL     -0.851332
    185 H90         1.5950   -2.9650   -3.2410 ho        1 MOL      0.429953
    186 H91         2.3890   -3.4380   -4.4400 ho        1 MOL      0.429953
    187 O26         0.5180   -1.0790   -6.1750 oh        1 MOL     -0.851332
    188 H92         1.4270   -1.3110   -6.3420 ho        1 MOL      0.429953
    189 H93         0.3960   -0.2520   -6.6390 ho        1 MOL      0.429953
    190 O27        -2.8980   -0.6880   -5.3190 oh        1 MOL     -0.851332
    191 H94        -3.3120   -0.0770   -4.7110 ho        1 MOL      0.429953
    192 H95        -2.7580   -0.1700   -6.1080 ho        1 MOL      0.429953
@<TRIPOS>BOND
     1    1    2 1   
     2    1    4 1   
     3    1    5 1   
     4    1    6 1   
     5    2    3 2   
     6    2    7 1   
     7    7    8 1   
     8    7   15 1   
     9    8    9 1   
    10    8   11 1   
    11    8   16 1   
    12    9   10 2   
    13    9   19 1   
    14   11   12 1   
    15   11   17 1   
    16   11   18 1   
    17   12   13 1   
    18   12   14 1   
    19   19   20 1   
    20   19   28 1   
    21   20   21 1   
    22   20   23 1   
    23   20   29 1   
    24   21   22 2   
    25   21   41 1   
    26   23   24 1   
    27   23   30 1   
    28   23   31 1   
    29   24   25 1   
    30   24   32 1   
    31   24   33 1   
    32   25   26 1   
    33   25   34 1   
    34   25   35 1   
    35   26   27 1   
    36   26   36 1   
    37   26   37 1   
    38   27   38 1   
    39   27   39 1   
    40   27   40 1   
    41   41   42 1   
    42   41   49 1   
    43   42   43 1   
    44   42   45 1   
    45   42   50 1   
    46   43   44 2   
    47   43   53 1   
    48   45   46 1   
    49   45   51 1   
    50   45   52 1   
    51   46   47 1   
    52   46   48 1   
    53   53   54 1   
    54   53   57 1   
    55   54   55 1   
    56   54   58 1   
    57   54   59 1   
    58   55   56 2   
    59   55   60 1   
    60   60   61 1   
    61   60   68 1   
    62   61   62 1   
    63   61   64 1   
    64   61   69 1   
    65   62   63 2   
    66   62   72 1   
    67   64   65 1   
    68   64   70 1   
    69   64   71 1   
    70   65   66 1   
    71   65   67 1   
    72   72   73 1   
    73   72   76 1   
    74   73   74 1   
    75   73   77 1   
    76   73   78 1   
    77   74   75 2   
    78   74   79 1   
    79   79   80 1   
    80   79   86 1   
    81   80   81 1   
    82   80   83 1   
    83   80   87 1   
    84   81   82 2   
    85   81   93 1   
    86   83   84 1   
    87   83   85 1   
    88   83   88 1   
    89   84   90 1   
    90   84   91 1   
    91   84   92 1   
    92   85   89 1   
    93   93   94 1   
    94   93  101 1   
    95   94   95 1   
    96   94   97 1   
    97   94  102 1   
    98   95   96 2   
    99   95  112 1   
   100   97   98 1   
   101   97   99 1   
   102   97  103 1   
   103   98  100 1   
   104   98  104 1   
   105   98  105 1   
   106   99  106 1   
   107   99  107 1   
   108   99  108 1   
   109  100  109 1   
   110  100  110 1   
   111  100  111 1   
   112  112  113 1   
   113  112  119 1   
   114  113  114 1   
   115  113  116 1   
   116  113  120 1   
   117  114  115 2   
   118  114  126 1   
   119  116  117 1   
   120  116  118 1   
   121  116  121 1   
   122  117  123 1   
   123  117  124 1   
   124  117  125 1   
   125  118  122 1   
   126  126  127 1   
   127  126  133 1   
   128  127  128 1   
   129  127  130 1   
   130  127  134 1   
   131  128  129 2   
   132  128  140 1   
   133  130  131 1   
   134  130  132 1   
   135  130  135 1   
   136  131  137 1   
   137  131  138 1   
   138  131  139 1   
   139  132  136 1   
   140  140  141 1   
   141  140  149 1   
   142  141  142 1   
   143  141  144 1   
   144  141  150 1   
   145  142  143 2   
   146  142  162 1   
   147  144  145 1   
   148  144  151 1   
   149  144  152 1   
   150  145  146 1   
   151  145  153 1   
   152  145  154 1   
   153  146  147 1   
   154  146  155 1   
   155  146  156 1   
   156  147  148 1   
   157  147  157 1   
   158  147  158 1   
   159  148  159 1   
   160  148  160 1   
   161  148  161 1   
   162  162  163 1   
   163  162  171 1   
   164  163  164 1   
   165  163  166 1   
   166  163  172 1   
   167  164  165 2   
   168  164  177 1   
   169  166  167 1   
   170  166  173 1   
   171  166  174 1   
   172  167  168 1   
   173  167  175 1   
   174  167  176 1   
   175  168  169 1   
   176  168  170 1   
   177  177  178 1   
   178  177  182 1   
   179  178  179 1   
   180  178  180 1   
   181  178  181 1   
   182  184  185 1   
   183  184  186 1   
   184  187  188 1   
   185  187  189 1   
   186  190  191 1   
   187  190  192 1   
@<TRIPOS>SUBSTRUCTURE
     1 MOL         1 TEMP              0 ****  ****    0 ROOT
