@<TRIPOS>MOLECULE
MOL
  182   178     1     0     0
SMALL
resp


@<TRIPOS>ATOM
      1 C1          0.8820   -3.4640    6.4920 c3        1 MOL     -0.469315
      2 C2          0.8920   -3.3000    4.9650 c         1 MOL      0.752844
      3 O1         -0.0820   -3.4440    4.1840 o         1 MOL     -0.606717
      4 H1          1.9070   -3.5190    6.8580 hc        1 MOL      0.136910
      5 H2          0.3790   -2.6100    6.9470 hc        1 MOL      0.136910
      6 H3          0.3540   -4.3810    6.7560 hc        1 MOL      0.136910
      7 N1          2.0760   -3.0520    4.4210 n         1 MOL     -0.544615
      8 C3          2.3260   -2.8780    2.9890 c3        1 MOL      0.133469
      9 C4          2.3590   -4.2190    2.1330 c         1 MOL      0.444296
     10 O2          2.6710   -5.3090    2.6790 o         1 MOL     -0.536171
     11 C5          3.5040   -1.8970    2.7460 c3        1 MOL     -0.215537
     12 C6          3.5420   -1.3250    1.3740 c         1 MOL      0.447153
     13 O3          4.0910   -0.2210    1.2190 o         1 MOL     -0.652686
     14 O4          2.9500   -1.8380    0.4060 o         1 MOL     -0.652686
     15 H4          2.8280   -2.9130    5.0900 hn        1 MOL      0.303003
     16 H5          1.4850   -2.2750    2.6580 h1        1 MOL      0.067609
     17 H6          4.4300   -2.4190    2.9990 hc        1 MOL      0.097929
     18 H7          3.3140   -1.1330    3.4980 hc        1 MOL      0.097929
     19 N2          1.9330   -4.2140    0.8600 n         1 MOL     -0.227027
     20 C7          1.8850   -5.3380   -0.0810 c3        1 MOL     -0.012578
     21 C8          3.0360   -5.3200   -1.1080 c         1 MOL      0.609489
     22 O5          3.3020   -6.3470   -1.7280 o         1 MOL     -0.595005
     23 C9          0.4610   -5.4220   -0.6750 c3        1 MOL     -0.005398
     24 C10         0.1960   -6.5980   -1.6110 c3        1 MOL     -0.053247
     25 C11        -1.3010   -6.6800   -1.9300 c3        1 MOL     -0.018244
     26 C12        -1.5490   -7.7530   -2.9780 c3        1 MOL      0.108863
     27 N3         -3.0250   -7.8480   -3.1530 n4        1 MOL     -0.559838
     28 H8          1.7690   -3.2980    0.4530 hn        1 MOL      0.281090
     29 H9          2.1170   -6.2710    0.4270 h1        1 MOL      0.087160
     30 H10         0.2980   -4.4730   -1.1970 hc        1 MOL      0.001267
     31 H11        -0.1960   -5.3460    0.1890 hc        1 MOL      0.001267
     32 H12         0.5030   -7.5550   -1.1720 hc        1 MOL      0.041731
     33 H13         0.7770   -6.4630   -2.5200 hc        1 MOL      0.041731
     34 H14        -1.6350   -5.7170   -2.3120 hc        1 MOL      0.042897
     35 H15        -1.8230   -6.9270   -1.0080 hc        1 MOL      0.042897
     36 H16        -0.9890   -8.6470   -2.6900 hx        1 MOL      0.074710
     37 H17        -0.9160   -7.5260   -3.8270 hx        1 MOL      0.074710
     38 H18        -3.5940   -7.0080   -3.1850 hn        1 MOL      0.363593
     39 H19        -3.2310   -8.1430   -4.0950 hn        1 MOL      0.363593
     40 H20        -3.3530   -8.4610   -2.4200 hn        1 MOL      0.363593
     41 N4          3.7330   -4.1960   -1.2170 n         1 MOL     -0.441479
     42 C13         5.1480   -4.0590   -1.8280 c3        1 MOL      0.304638
     43 C14         6.2270   -3.6210   -0.8440 c         1 MOL      0.370728
     44 O6          7.2490   -4.3600   -0.7780 o         1 MOL     -0.538575
     45 C15         5.0610   -3.1420   -3.0900 c3        1 MOL     -0.479453
     46 C16         4.3670   -1.7960   -2.7780 c         1 MOL      0.889773
     47 O7          4.7730   -0.9800   -1.8860 o         1 MOL     -0.733896
     48 O8          3.3800   -1.5240   -3.4180 o         1 MOL     -0.733896
     49 H21         3.4520   -3.5440   -0.4930 hn        1 MOL      0.072627
     50 H22         5.4580   -5.0480   -2.1550 h1        1 MOL      0.060805
     51 H23         4.6730   -3.5930   -4.0010 hc        1 MOL      0.119208
     52 H24         6.0980   -2.8660   -3.3110 hc        1 MOL      0.119208
     53 N5          6.0020   -2.5880   -0.0280 n         1 MOL     -0.215089
     54 C17         7.0460   -2.1240    0.8450 c3        1 MOL     -0.045249
     55 C18         7.2530   -0.6430    0.7410 c         1 MOL      0.466292
     56 O9          7.8750   -0.1510    1.6920 o         1 MOL     -0.563978
     57 H25         5.1040   -2.1310   -0.0860 hn        1 MOL      0.261435
     58 H26         8.0340   -2.5520    0.6860 h1        1 MOL      0.095352
     59 H27         6.8290   -2.3900    1.8720 h1        1 MOL      0.095352
     60 N6          6.8110    0.0420   -0.3070 n         1 MOL     -0.211364
     61 C19         7.1380    1.4460   -0.4680 c3        1 MOL      0.328827
     62 C20         5.9610    2.4120   -0.2090 c         1 MOL      0.356230
     63 O10         4.8190    2.0240   -0.2770 o         1 MOL     -0.355187
     64 C21         7.7550    1.7120   -1.8460 c3        1 MOL     -0.593546
     65 C22         9.0130    0.8340   -2.1250 c         1 MOL      0.691215
     66 N7          9.0200    0.1360   -3.1960 n         1 MOL     -0.737076
     67 O11        10.0090    0.7250   -1.4000 o         1 MOL     -0.535773
     68 H28         6.2130   -0.4590   -0.9460 hn        1 MOL      0.095855
     69 H29         7.8440    1.7470    0.2960 h1        1 MOL      0.003620
     70 H30         8.0860    2.7450   -1.7990 hc        1 MOL      0.141488
     71 H31         7.0240    1.7190   -2.6500 hc        1 MOL      0.141488
     72 H32         8.2400    0.2550   -3.8270 hn        1 MOL      0.357132
     73 H33         9.7850   -0.4600   -3.4660 hn        1 MOL      0.357132
     74 N8          6.2500    3.7260   -0.1910 n         1 MOL     -0.375567
     75 C23         5.2750    4.8150   -0.3700 c3        1 MOL     -0.180868
     76 C24         4.0490    4.8000    0.6210 c         1 MOL      0.577079
     77 O12         4.1420    4.6360    1.8400 o         1 MOL     -0.482155
     78 H34         7.2300    3.9510   -0.1140 hn        1 MOL      0.312774
     79 H35         4.9270    4.7740   -1.4080 h1        1 MOL      0.105885
     80 H36         5.8260    5.7520   -0.2820 h1        1 MOL      0.105885
     81 N9          2.9410    5.2650    0.0710 n         1 MOL     -0.436713
     82 C25         1.5880    5.0990    0.6160 c3        1 MOL     -0.090334
     83 C26         1.3170    3.6050    0.7870 c         1 MOL      0.753272
     84 O13         1.9700    2.7160    0.2260 o         1 MOL     -0.694660
     85 C27         0.5160    5.7300   -0.3140 c3        1 MOL     -0.125781
     86 C28         0.6610    7.2150   -0.6370 ca        1 MOL      0.030888
     87 C29         0.8330    8.2110    0.4100 ca        1 MOL     -0.095249
     88 C30         0.8090    7.6270   -1.9520 ca        1 MOL     -0.095249
     89 C31         1.1720    9.5480    0.1130 ca        1 MOL     -0.282819
     90 C32         1.0990    8.9720   -2.2370 ca        1 MOL     -0.282819
     91 C33         1.3250    9.9200   -1.2590 ca        1 MOL      0.381933
     92 O14         1.5920   11.2570   -1.5820 oh        1 MOL     -0.552531
     93 H37         2.9560    5.7740   -0.8080 hn        1 MOL      0.243688
     94 H38         1.6210    5.6420    1.5510 h1        1 MOL      0.117755
     95 H39        -0.4810    5.4780    0.0420 hc        1 MOL      0.053707
     96 H40         0.4960    5.2160   -1.2690 hc        1 MOL      0.053707
     97 H41         0.8440    7.9350    1.4530 ha        1 MOL      0.113530
     98 H42         0.7470    6.8720   -2.7220 ha        1 MOL      0.113530
     99 H43         1.2740   10.2370    0.9380 ha        1 MOL      0.165122
    100 H44         1.0520    9.2320   -3.2930 ha        1 MOL      0.165122
    101 H45         2.0770   11.8190   -0.9800 ho        1 MOL      0.408915
    102 N10         0.3670    3.3090    1.6900 n         1 MOL     -0.580342
    103 C34        -0.0540    2.0460    2.2390 c3        1 MOL     -0.003618
    104 C35        -0.2550    0.8660    1.1990 c         1 MOL      0.267037
    105 O15         0.6890    0.3750    0.5520 o         1 MOL     -0.242420
    106 C36         0.9320    1.6090    3.3240 c3        1 MOL      0.306388
    107 C37         0.5200    0.2630    3.9040 c3        1 MOL     -0.207514
    108 C38         1.0860    2.7340    4.3580 c3        1 MOL     -0.393215
    109 C39        -0.8010    0.3160    4.7280 c3        1 MOL     -0.119064
    110 H46        -0.0540    4.0990    2.1750 hn        1 MOL      0.310920
    111 H47        -0.9950    2.2120    2.7530 h1        1 MOL      0.080040
    112 H48         1.8480    1.3930    2.7740 hc        1 MOL      0.035185
    113 H49         1.3650    0.0930    4.5620 hc        1 MOL      0.057041
    114 H50         0.5680   -0.5050    3.1300 hc        1 MOL      0.057041
    115 H51         1.5050    3.5650    3.7910 hc        1 MOL      0.100046
    116 H52         0.1230    3.0740    4.7490 hc        1 MOL      0.100046
    117 H53         1.7640    2.4640    5.1780 hc        1 MOL      0.100046
    118 H54        -1.5140    0.5630    3.9490 hc        1 MOL      0.038627
    119 H55        -1.0230   -0.5770    5.3100 hc        1 MOL      0.038627
    120 H56        -0.7920    1.2040    5.3660 hc        1 MOL      0.038627
    121 N11        -1.3900    0.1960    1.2080 n         1 MOL     -0.271943
    122 C40        -1.7660   -0.9080    0.3490 c3        1 MOL     -0.215583
    123 C41        -3.2290   -1.2130    0.1440 c         1 MOL      0.532699
    124 O16        -3.4950   -2.2520   -0.5200 o         1 MOL     -0.542149
    125 C42        -1.1400   -2.1890    1.0490 c3        1 MOL      0.264890
    126 O17        -1.7190   -2.3880    2.3630 oh        1 MOL     -0.633008
    127 H57        -1.9840    0.4850    1.9710 hn        1 MOL      0.286067
    128 H58        -1.3810   -0.7590   -0.6560 h1        1 MOL      0.157249
    129 H59        -0.0570   -2.1430    1.1810 h1        1 MOL     -0.003582
    130 H60        -1.4330   -3.0770    0.5040 h1        1 MOL     -0.003582
    131 H61        -1.1070   -2.8540    2.9340 ho        1 MOL      0.415959
    132 N12        -4.1960   -0.4390    0.6780 n         1 MOL     -0.353665
    133 C43        -5.5800   -0.4920    0.3540 c3        1 MOL     -0.045802
    134 C44        -5.9020   -0.2090   -1.1960 c         1 MOL      0.593462
    135 O18        -5.2280    0.6610   -1.7990 o         1 MOL     -0.583127
    136 C45        -6.3210    0.4830    1.2850 c3        1 MOL     -0.043452
    137 H62        -3.8980    0.4110    1.1440 hn        1 MOL      0.212480
    138 H63        -5.9040   -1.5200    0.5500 h1        1 MOL      0.130403
    139 H64        -5.7650    1.3920    1.5190 hc        1 MOL      0.032085
    140 H65        -7.3270    0.7400    0.9710 hc        1 MOL      0.032085
    141 H66        -6.4050   -0.0480    2.2310 hc        1 MOL      0.032085
    142 N13        -6.9670   -0.6200   -1.8680 n         1 MOL     -0.555350
    143 C46        -8.1440   -1.1740   -1.2320 c3        1 MOL      0.308797
    144 C47        -9.4650   -0.6430   -1.8790 c         1 MOL      0.293130
    145 O19        -9.5520   -0.6520   -3.1240 o         1 MOL     -0.506913
    146 C48        -8.0170   -2.6960   -1.4410 c3        1 MOL     -0.269442
    147 H67        -7.0830   -0.2050   -2.7760 hn        1 MOL      0.327418
    148 H68        -8.1620   -0.9500   -0.1640 h1        1 MOL     -0.025064
    149 H69        -8.2220   -2.9050   -2.4940 hc        1 MOL      0.069478
    150 H70        -7.0300   -2.9830   -1.0720 hc        1 MOL      0.069478
    151 H71        -8.7810   -3.1180   -0.8030 hc        1 MOL      0.069478
    152 N14       -10.5490   -0.3140   -1.2070 n         1 MOL     -0.146137
    153 C49       -10.7780   -0.4500    0.1940 c3        1 MOL     -0.201402
    154 C50       -10.0080    0.6740    0.9560 c         1 MOL      0.636535
    155 O20        -9.5120    0.4580    2.0980 o         1 MOL     -0.584036
    156 C51       -12.3190   -0.5230    0.4840 c3        1 MOL     -0.021201
    157 C52       -13.0350    0.8270    0.3280 c3        1 MOL     -0.150411
    158 C53       -12.9560    1.3580   -1.0270 c         1 MOL      0.687880
    159 O21       -12.3340    2.4480   -1.2380 o         1 MOL     -0.669543
    160 O22       -13.4040    0.6450   -2.0080 o         1 MOL     -0.669543
    161 H72       -11.2470    0.1550   -1.7660 hn        1 MOL      0.231073
    162 H73       -10.2810   -1.3220    0.6230 h1        1 MOL      0.074540
    163 H74       -12.3770   -0.9190    1.5010 hc        1 MOL      0.041663
    164 H75       -12.8390   -1.2420   -0.1460 hc        1 MOL      0.041663
    165 H76       -12.6520    1.4790    1.1070 hc        1 MOL      0.022158
    166 H77       -14.0960    0.5930    0.4470 hc        1 MOL      0.022158
    167 N15        -9.8510    1.9190    0.3850 n         1 MOL     -0.265358
    168 C54        -9.3400    3.1040    1.0790 c3        1 MOL     -0.317639
    169 H78        -9.4340    3.9730    0.4290 h1        1 MOL      0.126543
    170 H79        -9.9150    3.2680    1.9910 h1        1 MOL      0.126543
    171 H80        -8.2910    2.9520    1.3340 h1        1 MOL      0.126543
    172 H81       -10.3110    2.0930   -0.4930 hn        1 MOL      0.231878
    173 Ca1         2.8820    0.2840   -1.1090 Ca        1 MOL      1.732640
    174 O23         0.6300    1.5320   -2.1860 oh        1 MOL     -0.876563
    175 H82        -0.1630    1.7470   -1.6960 ho        1 MOL      0.423113
    176 H83         0.8250    2.3290   -2.6820 ho        1 MOL      0.423113
    177 O24         0.9870   -1.7960   -2.0770 oh        1 MOL     -0.876563
    178 H84         0.0770   -1.8420   -2.3790 ho        1 MOL      0.423113
    179 H85         1.5140   -1.9460   -2.8640 ho        1 MOL      0.423113
    180 O25         3.5680    1.5610   -3.2740 oh        1 MOL     -0.876563
    181 H86         3.7200    1.2410   -4.1670 ho        1 MOL      0.423113
    182 H87         3.0140    2.3380   -3.3950 ho        1 MOL      0.423113
@<TRIPOS>BOND
     1    1    2 1   
     2    1    4 1   
     3    1    5 1   
     4    1    6 1   
     5    2    3 2   
     6    2    7 1   
     7    7    8 1   
     8    7   15 1   
     9    8    9 1   
    10    8   11 1   
    11    8   16 1   
    12    9   10 2   
    13    9   19 1   
    14   11   12 1   
    15   11   17 1   
    16   11   18 1   
    17   12   13 1   
    18   12   14 1   
    19   19   20 1   
    20   19   28 1   
    21   20   21 1   
    22   20   23 1   
    23   20   29 1   
    24   21   22 2   
    25   21   41 1   
    26   23   24 1   
    27   23   30 1   
    28   23   31 1   
    29   24   25 1   
    30   24   32 1   
    31   24   33 1   
    32   25   26 1   
    33   25   34 1   
    34   25   35 1   
    35   26   27 1   
    36   26   36 1   
    37   26   37 1   
    38   27   38 1   
    39   27   39 1   
    40   27   40 1   
    41   41   42 1   
    42   41   49 1   
    43   42   43 1   
    44   42   45 1   
    45   42   50 1   
    46   43   44 2   
    47   43   53 1   
    48   45   46 1   
    49   45   51 1   
    50   45   52 1   
    51   46   47 1   
    52   46   48 1   
    53   53   54 1   
    54   53   57 1   
    55   54   55 1   
    56   54   58 1   
    57   54   59 1   
    58   55   56 2   
    59   55   60 1   
    60   60   61 1   
    61   60   68 1   
    62   61   62 1   
    63   61   64 1   
    64   61   69 1   
    65   62   63 2   
    66   62   74 1   
    67   64   65 1   
    68   64   70 1   
    69   64   71 1   
    70   65   66 1   
    71   65   67 2   
    72   66   72 1   
    73   66   73 1   
    74   74   75 1   
    75   74   78 1   
    76   75   76 1   
    77   75   79 1   
    78   75   80 1   
    79   76   77 2   
    80   76   81 1   
    81   81   82 1   
    82   81   93 1   
    83   82   83 1   
    84   82   85 1   
    85   82   94 1   
    86   83   84 2   
    87   83  102 1   
    88   85   86 1   
    89   85   95 1   
    90   85   96 1   
    91   86   87 ar  
    92   86   88 ar  
    93   87   89 ar  
    94   87   97 1   
    95   88   90 ar  
    96   88   98 1   
    97   89   91 ar  
    98   89   99 1   
    99   90   91 ar  
   100   90  100 1   
   101   91   92 1   
   102   92  101 1   
   103  102  103 1   
   104  102  110 1   
   105  103  104 1   
   106  103  106 1   
   107  103  111 1   
   108  104  105 2   
   109  104  121 1   
   110  106  107 1   
   111  106  108 1   
   112  106  112 1   
   113  107  109 1   
   114  107  113 1   
   115  107  114 1   
   116  108  115 1   
   117  108  116 1   
   118  108  117 1   
   119  109  118 1   
   120  109  119 1   
   121  109  120 1   
   122  121  122 1   
   123  121  127 1   
   124  122  123 1   
   125  122  125 1   
   126  122  128 1   
   127  123  124 2   
   128  123  132 1   
   129  125  126 1   
   130  125  129 1   
   131  125  130 1   
   132  126  131 1   
   133  132  133 1   
   134  132  137 1   
   135  133  134 1   
   136  133  136 1   
   137  133  138 1   
   138  134  135 2   
   139  134  142 1   
   140  136  139 1   
   141  136  140 1   
   142  136  141 1   
   143  142  143 1   
   144  142  147 1   
   145  143  144 1   
   146  143  146 1   
   147  143  148 1   
   148  144  145 2   
   149  144  152 1   
   150  146  149 1   
   151  146  150 1   
   152  146  151 1   
   153  152  153 1   
   154  152  161 1   
   155  153  154 1   
   156  153  156 1   
   157  153  162 1   
   158  154  155 2   
   159  154  167 1   
   160  156  157 1   
   161  156  163 1   
   162  156  164 1   
   163  157  158 1   
   164  157  165 1   
   165  157  166 1   
   166  158  159 1   
   167  158  160 1   
   168  167  168 1   
   169  167  172 1   
   170  168  169 1   
   171  168  170 1   
   172  168  171 1   
   173  174  175 1   
   174  174  176 1   
   175  177  178 1   
   176  177  179 1   
   177  180  181 1   
   178  180  182 1   
@<TRIPOS>SUBSTRUCTURE
     1 MOL         1 TEMP              0 ****  ****    0 ROOT
