@<TRIPOS>MOLECULE
MOL
  185   180     1     0     0
SMALL
resp


@<TRIPOS>ATOM
      1 C1          5.8420    2.2770    1.7070 c3        1 MOL     -0.417048
      2 C2          6.6330    1.8350    0.4580 c         1 MOL      0.726811
      3 O1          6.0710    1.0960   -0.3510 o         1 MOL     -0.454846
      4 H1          4.7840    2.0610    1.5610 hc        1 MOL      0.101390
      5 H2          6.2060    1.7350    2.5790 hc        1 MOL      0.101390
      6 H3          5.9760    3.3480    1.8620 hc        1 MOL      0.101390
      7 N1          7.9000    2.2720    0.1810 n         1 MOL     -0.565923
      8 C3          8.8030    1.4660   -0.6580 c3        1 MOL      0.066844
      9 C4          8.8290   -0.0580   -0.3360 c         1 MOL      0.469976
     10 O2          9.0180   -0.8910   -1.2320 o         1 MOL     -0.494545
     11 C5          8.6390    1.8510   -2.1230 c3        1 MOL     -0.330704
     12 C6          8.4910    3.3190   -2.5140 c         1 MOL      0.754012
     13 O3          9.4180    4.1300   -2.3240 o         1 MOL     -0.647886
     14 O4          7.4640    3.6380   -3.1640 o         1 MOL     -0.647886
     15 H4          8.3450    2.9330    0.8030 hn        1 MOL      0.289421
     16 H5          9.8040    1.8040   -0.4060 h1        1 MOL      0.074218
     17 H6          7.8110    1.3780   -2.6420 hc        1 MOL      0.106900
     18 H7          9.6240    1.6730   -2.5570 hc        1 MOL      0.106900
     19 N2          8.5470   -0.4360    0.9170 n         1 MOL     -0.383935
     20 C7          8.5690   -1.8310    1.4320 c3        1 MOL     -0.058229
     21 C8          7.2250   -2.5690    1.2220 c         1 MOL      0.568135
     22 O5          7.1780   -3.6980    1.6560 o         1 MOL     -0.566281
     23 C9          9.0880   -1.7800    2.8890 c3        1 MOL     -0.007312
     24 C10        10.5730   -1.2600    3.0280 c3        1 MOL     -0.143559
     25 C11        11.0850   -1.2580    4.5020 c3        1 MOL     -0.027685
     26 C12        10.6340   -0.0420    5.3140 c3        1 MOL      0.057159
     27 N3         11.3470    0.0410    6.5880 n4        1 MOL     -0.217756
     28 H8          8.4800    0.3620    1.5320 hn        1 MOL      0.227317
     29 H9          9.2320   -2.4520    0.8340 h1        1 MOL      0.133707
     30 H10         9.0180   -2.8340    3.1490 hc        1 MOL      0.032522
     31 H11         8.3950   -1.2760    3.5570 hc        1 MOL      0.032522
     32 H12        10.6800   -0.3030    2.5180 hc        1 MOL      0.064596
     33 H13        11.1540   -2.0540    2.5700 hc        1 MOL      0.064596
     34 H14        12.1690   -1.3280    4.4630 hc        1 MOL      0.051158
     35 H15        10.7300   -2.1720    4.9610 hc        1 MOL      0.051158
     36 H16         9.5640   -0.0810    5.4920 hx        1 MOL      0.056813
     37 H17        10.7900    0.8650    4.7300 hx        1 MOL      0.056813
     38 H18        11.0870    0.8590    7.1230 hn        1 MOL      0.218880
     39 H19        11.0610   -0.6480    7.2520 hn        1 MOL      0.218880
     40 H20        12.3580    0.0700    6.5450 hn        1 MOL      0.218880
     41 N4          6.2120   -1.9500    0.6050 n         1 MOL     -0.341263
     42 C13         4.9280   -2.5160    0.2150 c3        1 MOL      0.009959
     43 C14         4.9250   -2.8290   -1.2750 c         1 MOL      0.607643
     44 O6          5.5940   -2.1000   -2.0180 o         1 MOL     -0.453302
     45 C15         3.8130   -1.5200    0.6850 c3        1 MOL      0.027084
     46 C16         2.3500   -1.9770    0.5150 c         1 MOL      0.734901
     47 O7          1.5820   -2.1550    1.4870 o         1 MOL     -0.754280
     48 O8          1.9030   -2.2960   -0.6170 o         1 MOL     -0.754280
     49 H21         6.3560   -0.9920    0.3070 hn        1 MOL      0.175348
     50 H22         4.7410   -3.4240    0.7900 h1        1 MOL      0.007254
     51 H23         4.0030   -0.5680    0.1840 hc        1 MOL     -0.016862
     52 H24         3.8520   -1.2580    1.7470 hc        1 MOL     -0.016862
     53 N5          4.0660   -3.8310   -1.6390 n         1 MOL     -0.478012
     54 C17         4.0160   -4.3100   -3.0610 c3        1 MOL     -0.159609
     55 C18         3.3410   -3.3360   -4.0680 c         1 MOL      0.541964
     56 O9          3.4620   -3.5040   -5.2700 o         1 MOL     -0.550896
     57 H25         3.5290   -4.2540   -0.8980 hn        1 MOL      0.313225
     58 H26         3.4750   -5.2550   -3.1490 h1        1 MOL      0.110490
     59 H27         5.0100   -4.6410   -3.3700 h1        1 MOL      0.110490
     60 N6          2.5620   -2.3720   -3.5710 n         1 MOL     -0.133685
     61 C19         1.8930   -1.3280   -4.3360 c3        1 MOL      0.006345
     62 C20         1.8600    0.0930   -3.6390 c         1 MOL      0.582768
     63 O10         1.7210    1.0510   -4.3750 o         1 MOL     -0.544389
     64 C21         0.4800   -1.8060   -4.7170 c3        1 MOL     -0.244629
     65 C22        -0.4870   -2.0040   -3.5650 c         1 MOL      0.535368
     66 N7         -1.7050   -2.2300   -3.7780 n         1 MOL     -0.535460
     67 O11        -0.1580   -1.9720   -2.4040 o         1 MOL     -0.556858
     68 H28         2.3680   -2.4070   -2.5770 hn        1 MOL     -0.134446
     69 H29         2.4530   -1.1680   -5.2580 h1        1 MOL      0.109416
     70 H30         0.7010   -2.7110   -5.2780 hc        1 MOL      0.082803
     71 H31         0.0970   -1.0050   -5.3500 hc        1 MOL      0.082803
     72 H32        -1.9700   -2.3700   -4.7510 hn        1 MOL      0.290064
     73 H33        -2.3300   -2.4380   -3.0190 hn        1 MOL      0.290064
     74 N8          2.0110    0.2010   -2.3130 n         1 MOL     -0.408420
     75 C23         1.8810    1.4280   -1.5630 c3        1 MOL     -0.019821
     76 C24         0.4060    1.7500   -1.0560 c         1 MOL      0.481843
     77 O12        -0.5310    1.1100   -1.5160 o         1 MOL     -0.423162
     78 H34         1.9820   -0.6810   -1.8380 hn        1 MOL      0.354141
     79 H35         2.3480    2.2580   -2.1130 h1        1 MOL      0.090916
     80 H36         2.4540    1.3480   -0.6440 h1        1 MOL      0.090916
     81 N9          0.2870    2.9080   -0.3760 n         1 MOL     -0.525184
     82 C25        -0.9110    3.5250    0.0860 c3        1 MOL      0.176001
     83 C26        -1.9780    2.5720    0.6830 c         1 MOL      0.315034
     84 O13        -1.6790    1.5500    1.3540 o         1 MOL     -0.443559
     85 C27        -0.5510    4.5370    1.1720 c3        1 MOL      0.015898
     86 C28         0.4360    5.6450    0.7650 ca        1 MOL     -0.066955
     87 C29         1.7720    5.4370    1.0450 ca        1 MOL     -0.118603
     88 C30         0.0380    6.7830    0.0790 ca        1 MOL     -0.118603
     89 C31         2.7320    6.3860    0.8470 ca        1 MOL     -0.196985
     90 C32         1.0040    7.7390   -0.2520 ca        1 MOL     -0.196985
     91 C33         2.3380    7.5650    0.1540 ca        1 MOL      0.248365
     92 O14         3.3310    8.3330   -0.3500 oh        1 MOL     -0.431644
     93 H37         1.1610    3.3430   -0.1150 hn        1 MOL      0.317084
     94 H38        -1.3620    4.1780   -0.6730 h1        1 MOL      0.048815
     95 H39        -0.1880    4.0440    2.0700 hc        1 MOL      0.040392
     96 H40        -1.4760    5.0410    1.4410 hc        1 MOL      0.040392
     97 H41         2.0380    4.5280    1.5670 ha        1 MOL      0.101489
     98 H42        -0.9820    6.9560   -0.2240 ha        1 MOL      0.101489
     99 H43         3.7700    6.2610    1.0910 ha        1 MOL      0.140330
    100 H44         0.7690    8.5750   -0.8950 ha        1 MOL      0.140330
    101 H45         3.0070    9.1440   -0.7440 ho        1 MOL      0.355877
    102 N10        -3.2440    3.0330    0.5240 n         1 MOL     -0.481324
    103 C34        -4.3430    2.3990    1.1720 c3        1 MOL     -0.008312
    104 C35        -5.5010    2.1700    0.1770 c         1 MOL      0.579349
    105 O15        -5.9090    1.0540    0.0920 o         1 MOL     -0.439138
    106 C36        -4.8620    3.2470    2.3880 c3        1 MOL      0.322770
    107 C37        -3.7920    3.7180    3.3170 c3        1 MOL     -0.008821
    108 C38        -6.0470    2.5790    3.0440 c3        1 MOL     -0.702638
    109 C39        -3.1330    2.6500    4.1770 c3        1 MOL      0.061738
    110 H46        -3.4170    3.9100    0.0650 hn        1 MOL      0.277947
    111 H47        -4.0480    1.4420    1.5890 h1        1 MOL      0.081871
    112 H48        -5.2010    4.1620    1.8880 hc        1 MOL     -0.105864
    113 H49        -4.2560    4.4360    3.9960 hc        1 MOL     -0.024212
    114 H50        -2.9280    4.1950    2.8520 hc        1 MOL     -0.024212
    115 H51        -6.3330    3.2110    3.8840 hc        1 MOL      0.187977
    116 H52        -6.8550    2.4400    2.3290 hc        1 MOL      0.187977
    117 H53        -5.7350    1.5630    3.2780 hc        1 MOL      0.187977
    118 H54        -3.8940    2.0750    4.7050 hc        1 MOL     -0.006693
    119 H55        -2.5910    1.9210    3.5890 hc        1 MOL     -0.006693
    120 H56        -2.4780    3.0020    4.9740 hc        1 MOL     -0.006693
    121 N11        -5.9200    3.2400   -0.5180 n         1 MOL     -0.317274
    122 C40        -6.9530    3.2570   -1.5760 c3        1 MOL     -0.444529
    123 C41        -8.1470    2.3040   -1.3610 c         1 MOL      0.629774
    124 O16        -8.4650    1.4720   -2.1820 o         1 MOL     -0.501882
    125 C42        -7.2690    4.7330   -1.8730 c3        1 MOL      0.388916
    126 O17        -6.0840    5.3510   -2.3790 oh        1 MOL     -0.585842
    127 H57        -5.3810    4.0860   -0.3840 hn        1 MOL      0.246653
    128 H58        -6.4610    2.7690   -2.4240 h1        1 MOL      0.194748
    129 H59        -7.6340    5.2890   -1.0090 h1        1 MOL      0.012675
    130 H60        -8.0460    4.8770   -2.6230 h1        1 MOL      0.012675
    131 H61        -5.3430    4.7670   -2.2260 ho        1 MOL      0.368448
    132 N12        -8.7910    2.3870   -0.1810 n         1 MOL     -0.557557
    133 C43        -9.9460    1.6660    0.2800 c3        1 MOL      0.357217
    134 C44        -9.9660    0.1310    0.1900 c         1 MOL      0.424055
    135 O18       -10.9170   -0.5740    0.2680 o         1 MOL     -0.503001
    136 C45       -11.2250    2.2430   -0.3540 c3        1 MOL     -0.418930
    137 H62        -8.5420    3.1540    0.4300 hn        1 MOL      0.294066
    138 H63       -10.0780    1.8570    1.3470 h1        1 MOL      0.013152
    139 H64       -11.1630    2.0000   -1.4210 hc        1 MOL      0.113965
    140 H65       -12.0940    1.7130    0.0390 hc        1 MOL      0.113965
    141 H66       -11.2840    3.3180   -0.2390 hc        1 MOL      0.113965
    142 N13        -8.7430   -0.4520    0.0460 n         1 MOL     -0.510214
    143 C46        -8.4840   -1.8890   -0.2390 c3        1 MOL      0.617920
    144 C47        -7.5230   -2.4100    0.7990 c         1 MOL      0.391979
    145 O19        -6.7570   -1.6380    1.4450 o         1 MOL     -0.449679
    146 C48        -8.1290   -2.1980   -1.6890 c3        1 MOL     -0.298379
    147 H67        -7.9370    0.1490    0.1410 hn        1 MOL      0.162687
    148 H68        -9.4260   -2.3630    0.0240 h1        1 MOL     -0.072169
    149 H69        -8.8540   -1.8330   -2.4160 hc        1 MOL      0.077604
    150 H70        -7.1640   -1.8190   -2.0200 hc        1 MOL      0.077604
    151 H71        -8.2150   -3.2700   -1.8810 hc        1 MOL      0.077604
    152 N14        -7.4200   -3.6790    1.0080 n         1 MOL     -0.525750
    153 C49        -6.3420   -4.3080    1.8270 c3        1 MOL     -0.158582
    154 C50        -6.4550   -3.7150    3.2860 c         1 MOL      0.411363
    155 O20        -5.4870   -3.4400    3.9850 o         1 MOL     -0.517856
    156 C51        -4.9400   -4.0600    1.2620 c3        1 MOL      0.141055
    157 C52        -4.8340   -4.4250   -0.2530 c3        1 MOL     -0.128319
    158 C53        -3.3360   -4.1660   -0.6900 c         1 MOL      0.669299
    159 O21        -2.5180   -5.0900   -0.5560 o         1 MOL     -0.749344
    160 O22        -2.9630   -3.0340   -1.0930 o         1 MOL     -0.749344
    161 H72        -7.7810   -4.3730    0.3580 hn        1 MOL      0.313065
    162 H73        -6.5490   -5.3760    1.9220 h1        1 MOL      0.122216
    163 H74        -4.1450   -4.6150    1.7640 hc        1 MOL      0.036627
    164 H75        -4.6300   -3.0230    1.3120 hc        1 MOL      0.036627
    165 H76        -5.5180   -3.6900   -0.6740 hc        1 MOL      0.005694
    166 H77        -5.1410   -5.4620   -0.3630 hc        1 MOL      0.005694
    167 N15        -7.6280   -3.4320    3.7800 n         1 MOL     -0.247097
    168 C54        -7.8270   -2.7540    5.1270 c3        1 MOL     -0.199239
    169 H78        -8.8780   -2.8070    5.4080 h1        1 MOL      0.106217
    170 H79        -7.2240   -3.2600    5.8810 h1        1 MOL      0.106217
    171 H80        -7.5230   -1.7100    5.0580 h1        1 MOL      0.106217
    172 H81        -8.4200   -3.6090    3.1820 hn        1 MOL      0.234562
    173 Ca1        -0.4360   -3.3570   -0.2720 Ca        1 MOL      1.705712
    174 O23         0.8160   -5.3280    0.7760 oh        1 MOL     -0.778256
    175 H82         0.6120   -5.9910    1.4450 ho        1 MOL      0.405429
    176 H83         1.6890   -5.5780    0.4570 ho        1 MOL      0.405429
    177 O24         0.3870   -4.8940   -2.1270 oh        1 MOL     -0.778256
    178 H84         0.0410   -4.6340   -2.9790 ho        1 MOL      0.405429
    179 H85         0.6120   -5.8180   -2.2190 ho        1 MOL      0.405429
    180 O25        -1.5990   -3.4150    2.1500 oh        1 MOL     -0.778256
    181 H86        -1.5120   -3.8230    3.0030 ho        1 MOL      0.405429
    182 H87        -1.9030   -2.5350    2.3330 ho        1 MOL      0.405429
    183 O26        -1.5450   -0.8740    0.2260 oh        1 MOL     -0.778256
    184 H88        -1.5750   -0.4200   -0.6260 ho        1 MOL      0.405429
    185 H89        -2.0470   -0.3090    0.8080 ho        1 MOL      0.405429
@<TRIPOS>BOND
     1    1    2 1   
     2    1    4 1   
     3    1    5 1   
     4    1    6 1   
     5    2    3 2   
     6    2    7 1   
     7    7    8 1   
     8    7   15 1   
     9    8    9 1   
    10    8   11 1   
    11    8   16 1   
    12    9   10 2   
    13    9   19 1   
    14   11   12 1   
    15   11   17 1   
    16   11   18 1   
    17   12   13 1   
    18   12   14 1   
    19   19   20 1   
    20   19   28 1   
    21   20   21 1   
    22   20   23 1   
    23   20   29 1   
    24   21   22 2   
    25   21   41 1   
    26   23   24 1   
    27   23   30 1   
    28   23   31 1   
    29   24   25 1   
    30   24   32 1   
    31   24   33 1   
    32   25   26 1   
    33   25   34 1   
    34   25   35 1   
    35   26   27 1   
    36   26   36 1   
    37   26   37 1   
    38   27   38 1   
    39   27   39 1   
    40   27   40 1   
    41   41   42 1   
    42   41   49 1   
    43   42   43 1   
    44   42   45 1   
    45   42   50 1   
    46   43   44 2   
    47   43   53 1   
    48   45   46 1   
    49   45   51 1   
    50   45   52 1   
    51   46   47 1   
    52   46   48 1   
    53   53   54 1   
    54   53   57 1   
    55   54   55 1   
    56   54   58 1   
    57   54   59 1   
    58   55   56 2   
    59   55   60 1   
    60   60   61 1   
    61   60   68 1   
    62   61   62 1   
    63   61   64 1   
    64   61   69 1   
    65   62   63 2   
    66   62   74 1   
    67   64   65 1   
    68   64   70 1   
    69   64   71 1   
    70   65   66 1   
    71   65   67 2   
    72   66   72 1   
    73   66   73 1   
    74   74   75 1   
    75   74   78 1   
    76   75   76 1   
    77   75   79 1   
    78   75   80 1   
    79   76   77 2   
    80   76   81 1   
    81   81   82 1   
    82   81   93 1   
    83   82   83 1   
    84   82   85 1   
    85   82   94 1   
    86   83   84 2   
    87   83  102 1   
    88   85   86 1   
    89   85   95 1   
    90   85   96 1   
    91   86   87 ar  
    92   86   88 ar  
    93   87   89 ar  
    94   87   97 1   
    95   88   90 ar  
    96   88   98 1   
    97   89   91 ar  
    98   89   99 1   
    99   90   91 ar  
   100   90  100 1   
   101   91   92 1   
   102   92  101 1   
   103  102  103 1   
   104  102  110 1   
   105  103  104 1   
   106  103  106 1   
   107  103  111 1   
   108  104  105 2   
   109  104  121 1   
   110  106  107 1   
   111  106  108 1   
   112  106  112 1   
   113  107  109 1   
   114  107  113 1   
   115  107  114 1   
   116  108  115 1   
   117  108  116 1   
   118  108  117 1   
   119  109  118 1   
   120  109  119 1   
   121  109  120 1   
   122  121  122 1   
   123  121  127 1   
   124  122  123 1   
   125  122  125 1   
   126  122  128 1   
   127  123  124 2   
   128  123  132 1   
   129  125  126 1   
   130  125  129 1   
   131  125  130 1   
   132  126  131 1   
   133  132  133 1   
   134  132  137 1   
   135  133  134 1   
   136  133  136 1   
   137  133  138 1   
   138  134  135 2   
   139  134  142 1   
   140  136  139 1   
   141  136  140 1   
   142  136  141 1   
   143  142  143 1   
   144  142  147 1   
   145  143  144 1   
   146  143  146 1   
   147  143  148 1   
   148  144  145 2   
   149  144  152 1   
   150  146  149 1   
   151  146  150 1   
   152  146  151 1   
   153  152  153 1   
   154  152  161 1   
   155  153  154 1   
   156  153  156 1   
   157  153  162 1   
   158  154  155 2   
   159  154  167 1   
   160  156  157 1   
   161  156  163 1   
   162  156  164 1   
   163  157  158 1   
   164  157  165 1   
   165  157  166 1   
   166  158  159 1   
   167  158  160 1   
   168  167  168 1   
   169  167  172 1   
   170  168  169 1   
   171  168  170 1   
   172  168  171 1   
   173  174  175 1   
   174  174  176 1   
   175  177  178 1   
   176  177  179 1   
   177  180  181 1   
   178  180  182 1   
   179  183  184 1   
   180  183  185 1   
@<TRIPOS>SUBSTRUCTURE
     1 MOL         1 TEMP              0 ****  ****    0 ROOT
