@<TRIPOS>MOLECULE
MOL
  185   180     1     0     0
SMALL
resp


@<TRIPOS>ATOM
      1 C1          5.6680   -0.6090   -4.0870 c3        1 MOL     -0.472997
      2 C2          6.4630   -0.7450   -2.7700 c         1 MOL      0.692625
      3 O1          5.9050   -0.7550   -1.7360 o         1 MOL     -0.477202
      4 H1          5.8210   -1.5000   -4.6950 hc        1 MOL      0.122819
      5 H2          4.6070   -0.5010   -3.8610 hc        1 MOL      0.122819
      6 H3          6.0150    0.2670   -4.6330 hc        1 MOL      0.122819
      7 N1          7.8130   -0.8040   -2.8300 n         1 MOL     -0.709208
      8 C3          8.8080   -0.7950   -1.7850 c3        1 MOL      0.280911
      9 C4          8.4250    0.0020   -0.4900 c         1 MOL      0.444692
     10 O2          8.6140   -0.4050    0.6330 o         1 MOL     -0.451425
     11 C5          9.2050   -2.2670   -1.5290 c3        1 MOL     -0.303094
     12 C6          8.0290   -3.3010   -1.4030 c         1 MOL      0.838309
     13 O3          7.5050   -3.5060   -0.2630 o         1 MOL     -0.682366
     14 O4          7.8310   -4.1420   -2.3520 o         1 MOL     -0.682366
     15 H4          8.2110   -0.7780   -3.7630 hn        1 MOL      0.351294
     16 H5          9.6690   -0.2810   -2.2190 h1        1 MOL      0.018566
     17 H6          9.7460   -2.3470   -0.5900 hc        1 MOL      0.049915
     18 H7          9.9780   -2.5410   -2.2490 hc        1 MOL      0.049915
     19 N2          8.0050    1.2500   -0.6680 n         1 MOL     -0.776558
     20 C7          7.7700    2.2240    0.3860 c3        1 MOL      0.311116
     21 C8          6.2840    2.4390    0.8250 c         1 MOL      0.471583
     22 O5          5.8560    3.5010    1.2400 o         1 MOL     -0.560513
     23 C9          8.4310    3.6200    0.1350 c3        1 MOL      0.056428
     24 C10         9.9880    3.5240   -0.0690 c3        1 MOL     -0.027836
     25 C11        10.7390    4.8230    0.2020 c3        1 MOL     -0.008935
     26 C12        12.1510    4.7280   -0.3020 c3        1 MOL     -0.056414
     27 N3         12.9040    3.9570    0.6720 n4        1 MOL     -0.384567
     28 H8          7.8640    1.5700   -1.6260 hn        1 MOL      0.340652
     29 H9          8.2580    1.9110    1.3060 h1        1 MOL      0.034995
     30 H10         8.3290    4.2080    1.0420 hc        1 MOL     -0.005364
     31 H11         7.8180    4.0690   -0.6610 hc        1 MOL     -0.005364
     32 H12        10.1690    3.3280   -1.1240 hc        1 MOL      0.016102
     33 H13        10.2830    2.7260    0.6130 hc        1 MOL      0.016102
     34 H14        10.7060    5.0570    1.2700 hc        1 MOL      0.041107
     35 H15        10.1920    5.6440   -0.2760 hc        1 MOL      0.041107
     36 H16        12.5890    5.7210   -0.2790 hx        1 MOL      0.110326
     37 H17        12.1890    4.4690   -1.3560 hx        1 MOL      0.110326
     38 H18        13.8780    4.1280    0.4550 hn        1 MOL      0.327826
     39 H19        12.6880    4.1050    1.6500 hn        1 MOL      0.327826
     40 H20        12.6200    2.9940    0.5610 hn        1 MOL      0.327826
     41 N4          5.4620    1.4220    0.5710 n         1 MOL     -0.322149
     42 C13         4.0290    1.4860    0.8770 c3        1 MOL     -0.354254
     43 C14         3.7280    1.6150    2.4040 c         1 MOL      0.705847
     44 O6          4.3430    0.9080    3.1790 o         1 MOL     -0.523256
     45 C15         3.3460    0.2130    0.2530 c3        1 MOL     -0.323485
     46 C16         1.8240    0.2010    0.2990 c         1 MOL      1.298193
     47 O7          1.2230    1.1050    0.9640 o         1 MOL     -0.964580
     48 O8          1.1440   -0.5780   -0.3910 o         1 MOL     -0.964580
     49 H21         5.8340    0.6440    0.0460 hn        1 MOL      0.344740
     50 H22         3.7310    2.3480    0.2760 h1        1 MOL      0.117851
     51 H23         3.7190   -0.6650    0.7660 hc        1 MOL      0.125443
     52 H24         3.5280    0.1230   -0.8230 hc        1 MOL      0.125443
     53 N5          2.7950    2.5160    2.7760 n         1 MOL     -0.366116
     54 C17         2.4070    2.8700    4.1780 c3        1 MOL     -0.122804
     55 C18         1.5270    1.7890    4.7680 c         1 MOL      0.484401
     56 O9          1.6100    1.6140    6.0040 o         1 MOL     -0.556974
     57 H25         2.1970    2.8290    2.0250 hn        1 MOL      0.232046
     58 H26         1.8770    3.8220    4.1870 h1        1 MOL      0.105888
     59 H27         3.2440    2.9150    4.8780 h1        1 MOL      0.105888
     60 N6          0.8430    1.0370    3.9490 n         1 MOL     -0.315949
     61 C19        -0.0490   -0.0260    4.4440 c3        1 MOL      0.048746
     62 C20         0.2550   -1.4740    3.9980 c         1 MOL      0.388128
     63 O10        -0.5240   -2.3590    4.3910 o         1 MOL     -0.503481
     64 C21        -1.5230    0.3800    4.2780 c3        1 MOL     -0.265177
     65 C22        -2.1320    0.2050    2.9450 c         1 MOL      0.843631
     66 N7         -3.2960   -0.4450    2.8720 n         1 MOL     -0.813693
     67 O11        -1.6450    0.6200    1.9240 o         1 MOL     -0.799419
     68 H28         0.7880    1.3070    2.9790 hn        1 MOL      0.344695
     69 H29         0.1070   -0.0460    5.5270 h1        1 MOL      0.122163
     70 H30        -1.5910    1.4160    4.6080 hc        1 MOL      0.077841
     71 H31        -2.0840   -0.1580    5.0460 hc        1 MOL      0.077841
     72 H32        -3.6890   -0.9170    3.6660 hn        1 MOL      0.370370
     73 H33        -3.6120   -0.6020    1.9180 hn        1 MOL      0.370370
     74 N8          1.2960   -1.7140    3.2250 n         1 MOL     -0.154536
     75 C23         1.6910   -2.9820    2.7100 c3        1 MOL     -0.157166
     76 C24         0.6650   -3.6980    1.8390 c         1 MOL      0.488459
     77 O12         0.0660   -4.6750    2.2980 o         1 MOL     -0.543336
     78 H34         1.8400   -0.8870    3.0190 hn        1 MOL      0.133488
     79 H35         1.7000   -3.6830    3.5560 h1        1 MOL      0.111316
     80 H36         2.6720   -2.9770    2.2460 h1        1 MOL      0.111316
     81 N9          0.4240   -3.2610    0.5630 n         1 MOL     -0.210141
     82 C25        -0.5510   -3.7470   -0.4740 c3        1 MOL      0.229284
     83 C26        -1.7510   -2.7410   -0.6410 c         1 MOL      0.243947
     84 O13        -1.5340   -1.5600   -0.3780 o         1 MOL     -0.253896
     85 C27         0.2010   -4.1050   -1.7910 c3        1 MOL      0.112097
     86 C28         1.6500   -4.4940   -1.6660 ca        1 MOL     -0.043809
     87 C29         2.0090   -5.8100   -1.3540 ca        1 MOL     -0.243603
     88 C30         2.7520   -3.5130   -1.6380 ca        1 MOL     -0.243603
     89 C31         3.3720   -6.1480   -1.1340 ca        1 MOL     -0.141857
     90 C32         4.1260   -3.8870   -1.3410 ca        1 MOL     -0.141857
     91 C33         4.4220   -5.2070   -1.0200 ca        1 MOL      0.328237
     92 O14         5.7290   -5.5890   -0.8250 oh        1 MOL     -0.536891
     93 H37         0.8510   -2.3550    0.3880 hn        1 MOL      0.078121
     94 H38        -1.0220   -4.6990   -0.2230 h1        1 MOL     -0.004109
     95 H39         0.1790   -3.1970   -2.3880 hc        1 MOL     -0.027958
     96 H40        -0.2440   -4.9150   -2.3630 hc        1 MOL     -0.027958
     97 H41         1.2960   -6.6200   -1.2820 ha        1 MOL      0.138555
     98 H42         2.4260   -2.5150   -1.8820 ha        1 MOL      0.138555
     99 H43         3.7280   -7.1550   -0.9750 ha        1 MOL      0.101363
    100 H44         4.8660   -3.1090   -1.2860 ha        1 MOL      0.101363
    101 H45         6.3090   -4.8480   -0.6380 ho        1 MOL      0.407611
    102 N10        -2.9000   -3.2140   -1.1930 n         1 MOL     -0.489459
    103 C34        -4.0880   -2.3490   -1.4690 c3        1 MOL      0.025247
    104 C35        -4.9480   -2.0230   -0.2230 c         1 MOL      0.698614
    105 O15        -5.1130   -0.8120    0.0460 o         1 MOL     -0.677818
    106 C36        -4.9310   -2.8740   -2.7110 c3        1 MOL      0.242580
    107 C37        -4.1270   -3.5410   -3.8820 c3        1 MOL     -0.060826
    108 C38        -5.9080   -1.8820   -3.3790 c3        1 MOL     -0.357707
    109 C39        -3.1120   -2.6340   -4.5790 c3        1 MOL     -0.261672
    110 H46        -2.9250   -4.2260   -1.2790 hn        1 MOL      0.301390
    111 H47        -3.6750   -1.3760   -1.7470 h1        1 MOL      0.040710
    112 H48        -5.4750   -3.7380   -2.3330 hc        1 MOL     -0.094117
    113 H49        -4.8030   -3.8980   -4.6660 hc        1 MOL      0.046284
    114 H50        -3.5180   -4.3620   -3.5160 hc        1 MOL      0.046284
    115 H51        -5.3270   -1.1760   -3.9560 hc        1 MOL      0.103420
    116 H52        -6.6140   -2.4730   -3.9580 hc        1 MOL      0.103420
    117 H53        -6.4510   -1.3490   -2.5970 hc        1 MOL      0.103420
    118 H54        -2.3810   -2.4080   -3.8080 hc        1 MOL      0.070071
    119 H55        -2.6990   -3.1610   -5.4360 hc        1 MOL      0.070071
    120 H56        -3.5930   -1.7350   -4.9770 hc        1 MOL      0.070071
    121 N11        -5.3850   -3.0120    0.5450 n         1 MOL     -0.475534
    122 C40        -6.0860   -2.7910    1.8520 c3        1 MOL     -0.157478
    123 C41        -7.3610   -1.9450    1.7780 c         1 MOL      0.509103
    124 O16        -7.8470   -1.4690    2.7990 o         1 MOL     -0.477793
    125 C42        -6.3560   -4.1680    2.4670 c3        1 MOL      0.270694
    126 O17        -7.2840   -4.8500    1.6890 oh        1 MOL     -0.621872
    127 H57        -5.2830   -3.9650    0.2350 hn        1 MOL      0.348762
    128 H58        -5.4970   -2.2100    2.5520 h1        1 MOL      0.106822
    129 H59        -6.7630   -3.9460    3.4560 h1        1 MOL      0.035512
    130 H60        -5.5210   -4.8410    2.6400 h1        1 MOL      0.035512
    131 H61        -8.1520   -4.7110    2.0580 ho        1 MOL      0.416577
    132 N12        -8.0090   -1.7900    0.5810 n         1 MOL     -0.408538
    133 C43        -9.0380   -0.8020    0.2910 c3        1 MOL      0.122077
    134 C44        -8.7360    0.6230    0.8240 c         1 MOL      0.554816
    135 O18        -9.6860    1.3240    1.1140 o         1 MOL     -0.524670
    136 C45       -10.4410   -1.4620    0.5090 c3        1 MOL     -0.292956
    137 H62        -7.6500   -2.3600   -0.1680 hn        1 MOL      0.254377
    138 H63        -8.8500   -0.7450   -0.7840 h1        1 MOL      0.049223
    139 H64       -11.2610   -0.8910    0.0670 hc        1 MOL      0.089736
    140 H65       -10.5450   -2.4830    0.1580 hc        1 MOL      0.089736
    141 H66       -10.6720   -1.4420    1.5750 hc        1 MOL      0.089736
    142 N13        -7.4360    0.9970    0.8810 n         1 MOL     -0.675150
    143 C46        -7.0290    2.3810    1.0070 c3        1 MOL      0.687093
    144 C47        -6.4550    3.0230   -0.3180 c         1 MOL      0.178056
    145 O19        -6.0600    2.2090   -1.1690 o         1 MOL     -0.470980
    146 C48        -5.9510    2.3170    2.0850 c3        1 MOL     -0.343745
    147 H67        -6.6630    0.3410    0.8330 hn        1 MOL      0.366066
    148 H68        -7.7860    3.0600    1.3880 h1        1 MOL     -0.079556
    149 H69        -5.9000    3.3670    2.3660 hc        1 MOL      0.076396
    150 H70        -6.2150    1.7150    2.9590 hc        1 MOL      0.076396
    151 H71        -5.0410    1.9250    1.6370 hc        1 MOL      0.076396
    152 N14        -6.4090    4.3430   -0.4190 n         1 MOL     -0.437566
    153 C49        -5.9650    5.1320   -1.5080 c3        1 MOL      0.020391
    154 C50        -6.7840    4.8850   -2.8180 c         1 MOL      0.402267
    155 O20        -6.2440    5.1490   -3.9310 o         1 MOL     -0.511203
    156 C51        -4.4070    4.9520   -1.6550 c3        1 MOL      0.002302
    157 C52        -3.4840    4.9980   -0.4430 c3        1 MOL     -0.009785
    158 C53        -2.0040    4.8100   -0.8030 c         1 MOL      0.604135
    159 O21        -1.3860    5.6910   -1.4200 o         1 MOL     -0.675924
    160 O22        -1.4520    3.7330   -0.5850 o         1 MOL     -0.675924
    161 H72        -6.8060    4.8060    0.3870 hn        1 MOL      0.307468
    162 H73        -6.2260    6.1370   -1.1870 h1        1 MOL      0.083221
    163 H74        -4.0500    5.8250   -2.1930 hc        1 MOL      0.035722
    164 H75        -4.3040    4.0160   -2.2050 hc        1 MOL      0.035722
    165 H76        -3.7010    4.2370    0.3020 hc        1 MOL     -0.014653
    166 H77        -3.5870    5.9330    0.1070 hc        1 MOL     -0.014653
    167 N15        -8.0330    4.4270   -2.7840 n         1 MOL     -0.226243
    168 C54        -8.8770    4.0740   -4.0390 c3        1 MOL     -0.150567
    169 H78        -8.2370    3.6070   -4.7880 h1        1 MOL      0.097281
    170 H79        -9.6730    3.3840   -3.7600 h1        1 MOL      0.097281
    171 H80        -9.3130    4.9840   -4.4530 h1        1 MOL      0.097281
    172 H81        -8.4700    4.2920   -1.8860 hn        1 MOL      0.210342
    173 Ca1        -0.7220    1.2360   -0.7190 Ca        1 MOL      1.775354
    174 O23        -1.2800    2.1100   -3.2820 oh        1 MOL     -0.838993
    175 H82        -1.2770    1.6590   -4.1290 ho        1 MOL      0.413566
    176 H83        -1.4940    3.0240   -3.5040 ho        1 MOL      0.413566
    177 O24        -0.1960   -0.5600   -2.9880 oh        1 MOL     -0.838993
    178 H84        -0.5670   -0.4290   -3.8580 ho        1 MOL      0.413566
    179 H85         0.4860   -1.2260   -3.1150 ho        1 MOL      0.413566
    180 O25        -3.4150    1.1740   -0.9460 oh        1 MOL     -0.838993
    181 H86        -3.9570    1.7940   -1.4150 ho        1 MOL      0.413566
    182 H87        -4.0300    0.5230   -0.6110 ho        1 MOL      0.413566
    183 O26         1.4690    2.6030   -1.8310 oh        1 MOL     -0.838993
    184 H88         2.3920    2.3690   -1.9210 ho        1 MOL      0.413566
    185 H89         1.4630    3.5520   -1.8210 ho        1 MOL      0.413566
@<TRIPOS>BOND
     1    1    2 1   
     2    1    4 1   
     3    1    5 1   
     4    1    6 1   
     5    2    3 2   
     6    2    7 1   
     7    7    8 1   
     8    7   15 1   
     9    8    9 1   
    10    8   11 1   
    11    8   16 1   
    12    9   10 2   
    13    9   19 1   
    14   11   12 1   
    15   11   17 1   
    16   11   18 1   
    17   12   13 1   
    18   12   14 1   
    19   19   20 1   
    20   19   28 1   
    21   20   21 1   
    22   20   23 1   
    23   20   29 1   
    24   21   22 2   
    25   21   41 1   
    26   23   24 1   
    27   23   30 1   
    28   23   31 1   
    29   24   25 1   
    30   24   32 1   
    31   24   33 1   
    32   25   26 1   
    33   25   34 1   
    34   25   35 1   
    35   26   27 1   
    36   26   36 1   
    37   26   37 1   
    38   27   38 1   
    39   27   39 1   
    40   27   40 1   
    41   41   42 1   
    42   41   49 1   
    43   42   43 1   
    44   42   45 1   
    45   42   50 1   
    46   43   44 2   
    47   43   53 1   
    48   45   46 1   
    49   45   51 1   
    50   45   52 1   
    51   46   47 1   
    52   46   48 1   
    53   53   54 1   
    54   53   57 1   
    55   54   55 1   
    56   54   58 1   
    57   54   59 1   
    58   55   56 2   
    59   55   60 1   
    60   60   61 1   
    61   60   68 1   
    62   61   62 1   
    63   61   64 1   
    64   61   69 1   
    65   62   63 2   
    66   62   74 1   
    67   64   65 1   
    68   64   70 1   
    69   64   71 1   
    70   65   66 1   
    71   65   67 2   
    72   66   72 1   
    73   66   73 1   
    74   74   75 1   
    75   74   78 1   
    76   75   76 1   
    77   75   79 1   
    78   75   80 1   
    79   76   77 2   
    80   76   81 1   
    81   81   82 1   
    82   81   93 1   
    83   82   83 1   
    84   82   85 1   
    85   82   94 1   
    86   83   84 2   
    87   83  102 1   
    88   85   86 1   
    89   85   95 1   
    90   85   96 1   
    91   86   87 ar  
    92   86   88 ar  
    93   87   89 ar  
    94   87   97 1   
    95   88   90 ar  
    96   88   98 1   
    97   89   91 ar  
    98   89   99 1   
    99   90   91 ar  
   100   90  100 1   
   101   91   92 1   
   102   92  101 1   
   103  102  103 1   
   104  102  110 1   
   105  103  104 1   
   106  103  106 1   
   107  103  111 1   
   108  104  105 2   
   109  104  121 1   
   110  106  107 1   
   111  106  108 1   
   112  106  112 1   
   113  107  109 1   
   114  107  113 1   
   115  107  114 1   
   116  108  115 1   
   117  108  116 1   
   118  108  117 1   
   119  109  118 1   
   120  109  119 1   
   121  109  120 1   
   122  121  122 1   
   123  121  127 1   
   124  122  123 1   
   125  122  125 1   
   126  122  128 1   
   127  123  124 2   
   128  123  132 1   
   129  125  126 1   
   130  125  129 1   
   131  125  130 1   
   132  126  131 1   
   133  132  133 1   
   134  132  137 1   
   135  133  134 1   
   136  133  136 1   
   137  133  138 1   
   138  134  135 2   
   139  134  142 1   
   140  136  139 1   
   141  136  140 1   
   142  136  141 1   
   143  142  143 1   
   144  142  147 1   
   145  143  144 1   
   146  143  146 1   
   147  143  148 1   
   148  144  145 2   
   149  144  152 1   
   150  146  149 1   
   151  146  150 1   
   152  146  151 1   
   153  152  153 1   
   154  152  161 1   
   155  153  154 1   
   156  153  156 1   
   157  153  162 1   
   158  154  155 2   
   159  154  167 1   
   160  156  157 1   
   161  156  163 1   
   162  156  164 1   
   163  157  158 1   
   164  157  165 1   
   165  157  166 1   
   166  158  159 1   
   167  158  160 1   
   168  167  168 1   
   169  167  172 1   
   170  168  169 1   
   171  168  170 1   
   172  168  171 1   
   173  174  175 1   
   174  174  176 1   
   175  177  178 1   
   176  177  179 1   
   177  180  181 1   
   178  180  182 1   
   179  183  184 1   
   180  183  185 1   
@<TRIPOS>SUBSTRUCTURE
     1 MOL         1 TEMP              0 ****  ****    0 ROOT
