@<TRIPOS>MOLECULE
MOL
  195   189     1     0     0
SMALL
resp


@<TRIPOS>ATOM
      1 C1         -2.4480   -6.3300   -2.6500 c3        1 MOL     -0.485803
      2 C2         -2.9730   -5.4760   -1.5170 c         1 MOL      0.865993
      3 O1         -2.2440   -4.6930   -0.8930 o         1 MOL     -0.660834
      4 H1         -1.4010   -6.0870   -2.8320 hc        1 MOL      0.115476
      5 H2         -2.5360   -7.3830   -2.3830 hc        1 MOL      0.115476
      6 H3         -3.0270   -6.1340   -3.5530 hc        1 MOL      0.115476
      7 N1         -4.1690   -5.7620   -1.0560 n         1 MOL     -0.608755
      8 C3         -5.0040   -4.9220   -0.1360 c3        1 MOL      0.307175
      9 C4         -4.9950   -3.4290   -0.5680 c         1 MOL      0.345363
     10 O2         -4.9860   -2.5380    0.2860 o         1 MOL     -0.484580
     11 C5         -4.7320   -5.2400    1.4000 c3        1 MOL     -0.319684
     12 C6         -3.2680   -5.3350    1.8060 c         1 MOL      0.944732
     13 O3         -2.6600   -4.2680    2.0450 o         1 MOL     -0.797462
     14 O4         -2.8320   -6.4860    1.9140 o         1 MOL     -0.797462
     15 H4         -4.6280   -6.5480   -1.4970 hn        1 MOL      0.285572
     16 H5         -6.0030   -5.3230   -0.2700 h1        1 MOL      0.043199
     17 H6         -5.1570   -6.2230    1.6340 hc        1 MOL      0.079857
     18 H7         -5.1380   -4.4660    2.0510 hc        1 MOL      0.079857
     19 N2         -5.0980   -3.1020   -1.8600 n         1 MOL     -0.502744
     20 C7         -5.2070   -1.7520   -2.5420 c3        1 MOL      0.244522
     21 C8         -6.4350   -0.9170   -2.0760 c         1 MOL      0.404995
     22 O5         -7.2370   -0.7240   -2.9880 o         1 MOL     -0.571051
     23 C9         -4.0140   -0.8740   -2.4360 c3        1 MOL      0.418955
     24 C10        -3.9300    0.4680   -3.2860 c3        1 MOL      0.009742
     25 C11        -2.7540   -1.6700   -2.7670 c3        1 MOL     -0.353769
     26 C12        -4.1020    0.3900   -4.8440 c3        1 MOL     -0.296654
     27 H8         -5.0310   -3.8820   -2.4920 hn        1 MOL      0.243822
     28 H9         -5.3880   -1.9170   -3.6130 h1        1 MOL     -0.014009
     29 H10        -3.9960   -0.6070   -1.3780 hc        1 MOL     -0.219694
     30 H11        -3.0500    1.0080   -2.9190 hc        1 MOL      0.018596
     31 H12        -4.8270    1.0310   -3.0110 hc        1 MOL      0.018596
     32 H13        -3.0360   -2.2350   -3.6600 hc        1 MOL      0.042930
     33 H14        -1.8660   -1.0420   -2.8890 hc        1 MOL      0.042930
     34 H15        -2.4830   -2.3390   -1.9490 hc        1 MOL      0.042930
     35 H16        -4.0270    1.4010   -5.2500 hc        1 MOL      0.060962
     36 H17        -3.2500   -0.1280   -5.2980 hc        1 MOL      0.060962
     37 H18        -5.0770   -0.0380   -5.0440 hc        1 MOL      0.060962
     38 N3         -6.6090   -0.5630   -0.8350 n         1 MOL     -0.212785
     39 C13        -7.6990    0.1700   -0.2870 c3        1 MOL     -0.042269
     40 C14        -7.6490    1.7060   -0.7570 c         1 MOL      0.640344
     41 O6         -8.6420    2.1610   -1.3810 o         1 MOL     -0.582382
     42 C15        -7.7040   -0.1270    1.2480 c3        1 MOL     -0.155348
     43 C16        -8.2050   -1.5140    1.6280 c         1 MOL      0.702167
     44 O7         -8.0640   -1.8660    2.8000 o         1 MOL     -0.731319
     45 O8         -8.8290   -2.2120    0.7950 o         1 MOL     -0.731319
     46 H19        -5.9000   -0.8220   -0.1640 hn        1 MOL      0.336897
     47 H20        -8.6190   -0.2200   -0.7170 h1        1 MOL      0.068464
     48 H21        -8.4860    0.4630    1.7220 hc        1 MOL      0.052285
     49 H22        -6.7830    0.1390    1.7580 hc        1 MOL      0.052285
     50 N4         -6.5710    2.5070   -0.5890 n         1 MOL     -0.661815
     51 C17        -5.5310    2.4900    0.4820 c3        1 MOL     -0.041733
     52 C18        -6.1920    2.8660    1.8530 c         1 MOL      0.666955
     53 O9         -7.3790    3.1790    1.9500 o         1 MOL     -0.539582
     54 H23        -6.6680    3.4370   -0.9650 hn        1 MOL      0.346129
     55 H24        -4.7190    3.1450    0.1840 h1        1 MOL      0.057908
     56 H25        -5.1280    1.4880    0.6210 h1        1 MOL      0.057908
     57 N5         -5.4070    2.9270    2.9470 n         1 MOL     -0.741974
     58 C19        -3.9410    2.7990    2.8760 c3        1 MOL      0.393179
     59 C20        -3.5390    1.2780    3.0330 c         1 MOL      0.354976
     60 O10        -4.2920    0.4740    3.5870 o         1 MOL     -0.459019
     61 C21        -3.4170    3.5650    4.1320 c3        1 MOL     -0.225405
     62 C22        -3.6460    5.1220    4.1940 c         1 MOL      0.727913
     63 O11        -2.9440    5.7180    5.0000 o         1 MOL     -0.685960
     64 O12        -4.5310    5.6740    3.4620 o         1 MOL     -0.685960
     65 H26        -5.8370    3.0540    3.8430 hn        1 MOL      0.388973
     66 H27        -3.5910    3.3060    1.9740 h1        1 MOL     -0.099391
     67 H28        -2.3360    3.4110    4.1610 hc        1 MOL      0.034141
     68 H29        -3.7990    3.0970    5.0430 hc        1 MOL      0.034141
     69 N6         -2.3850    0.8640    2.4530 n         1 MOL     -0.310727
     70 C23        -1.4270    1.6890    1.7630 c3        1 MOL     -0.106978
     71 C24        -1.8230    2.0980    0.3490 c         1 MOL      0.808801
     72 O13        -2.5500    1.3360   -0.2890 o         1 MOL     -0.571029
     73 H30        -2.1720   -0.1120    2.5950 hn        1 MOL      0.230672
     74 H31        -0.4190    1.2660    1.7850 h1        1 MOL      0.043976
     75 H32        -1.3900    2.6130    2.3430 h1        1 MOL      0.043976
     76 N7         -1.3020    3.1960   -0.0810 n         1 MOL     -0.797162
     77 C25        -1.6570    3.9380   -1.2920 c3        1 MOL      0.308682
     78 C26        -0.6210    3.8120   -2.4690 c         1 MOL      0.335106
     79 O14        -0.6810    4.6740   -3.3920 o         1 MOL     -0.503327
     80 C27        -1.7660    5.3770   -0.9440 c3        1 MOL     -0.046192
     81 C28        -2.9740    5.5700    0.0670 c3        1 MOL      0.017384
     82 C29        -3.2340    7.0280    0.3460 c         1 MOL      0.518379
     83 N8         -3.8690    7.3660    1.4620 n         1 MOL     -0.703389
     84 O15        -2.6490    7.9320   -0.1350 o         1 MOL     -0.580776
     85 H33        -0.6410    3.6920    0.5040 hn        1 MOL      0.337367
     86 H34        -2.6340    3.5950   -1.6320 h1        1 MOL      0.041055
     87 H35        -1.9890    5.9670   -1.8300 hc        1 MOL      0.027280
     88 H36        -0.8960    5.8170   -0.4700 hc        1 MOL      0.027280
     89 H37        -2.8780    5.0030    0.9910 hc        1 MOL      0.036657
     90 H38        -3.8700    5.2030   -0.4370 hc        1 MOL      0.036657
     91 H39        -4.2870    6.6950    2.0930 hn        1 MOL      0.326996
     92 H40        -3.9190    8.3680    1.5960 hn        1 MOL      0.326996
     93 N9          0.2400    2.7570   -2.4140 n         1 MOL     -0.243904
     94 C30         1.3500    2.7210   -3.3560 c3        1 MOL      0.008069
     95 C31         2.6270    3.1510   -2.6560 c         1 MOL      0.515831
     96 O16         2.7540    3.0890   -1.4190 o         1 MOL     -0.520476
     97 C32         1.3580    1.2570   -3.8290 c3        1 MOL      0.217554
     98 C33         2.5260    0.7080   -4.5310 c3        1 MOL     -0.224591
     99 C34         0.2240    1.2130   -4.8770 c3        1 MOL     -0.224591
    100 H41         0.1960    2.1120   -1.6390 hn        1 MOL      0.240212
    101 H42         1.3180    3.4580   -4.1640 h1        1 MOL      0.041148
    102 H43         0.9550    0.5540   -3.0940 hc        1 MOL      0.024763
    103 H44         2.2780   -0.2450   -5.0030 hc        1 MOL      0.042684
    104 H45         2.7420    1.3370   -5.4010 hc        1 MOL      0.042684
    105 H46         3.3760    0.6900   -3.8600 hc        1 MOL      0.042684
    106 H47         0.0550    0.1720   -5.1240 hc        1 MOL      0.042684
    107 H48        -0.6820    1.4720   -4.3280 hc        1 MOL      0.042684
    108 H49         0.5360    1.8270   -5.7210 hc        1 MOL      0.042684
    109 N10         3.6830    3.5130   -3.4500 n         1 MOL     -0.288993
    110 C35         5.0190    4.0430   -3.0360 c3        1 MOL      0.007287
    111 C36         5.9160    3.0660   -2.2390 c         1 MOL      0.472073
    112 O17         7.0920    2.9910   -2.5660 o         1 MOL     -0.564573
    113 C37         4.8760    5.3760   -2.2050 c3        1 MOL     -0.832597
    114 C38         6.0980    5.7930   -1.4690 c         1 MOL      0.899148
    115 N11         7.1270    6.1700   -2.1470 n         1 MOL     -0.845146
    116 O18         6.2060    5.9370   -0.2740 o         1 MOL     -0.593857
    117 H50         3.6160    3.4100   -4.4540 hn        1 MOL      0.254798
    118 H51         5.5210    4.2550   -3.9840 h1        1 MOL      0.083530
    119 H52         4.0300    5.3150   -1.5160 hc        1 MOL      0.260025
    120 H53         4.7240    6.1650   -2.9350 hc        1 MOL      0.260025
    121 H54         7.0530    6.0610   -3.1550 hn        1 MOL      0.368849
    122 H55         8.0320    6.2970   -1.7320 hn        1 MOL      0.368849
    123 N12         5.3990    2.4050   -1.2160 n         1 MOL     -0.397194
    124 C39         6.1940    1.6540   -0.2360 c3        1 MOL      0.453766
    125 C40         5.5320    0.3070    0.1810 c         1 MOL      0.328419
    126 O19         4.3100    0.2430    0.2110 o         1 MOL     -0.482171
    127 C41         6.4750    2.5930    0.9870 c3        1 MOL     -0.306117
    128 C42         7.4050    1.8660    1.9920 ca        1 MOL      0.118729
    129 C43         6.8450    1.5700    3.2500 ca        1 MOL     -0.184460
    130 C44         8.7560    1.6210    1.7720 ca        1 MOL     -0.184460
    131 C45         7.6210    0.8320    4.1630 ca        1 MOL     -0.265343
    132 C46         9.5280    0.8580    2.7360 ca        1 MOL     -0.265343
    133 C47         8.9160    0.4130    3.8970 ca        1 MOL      0.373944
    134 O20         9.5900   -0.5260    4.7070 oh        1 MOL     -0.601315
    135 H56         4.4520    2.5480   -0.9120 hn        1 MOL      0.240327
    136 H57         7.1630    1.3820   -0.6590 h1        1 MOL     -0.060983
    137 H58         5.5360    2.8860    1.4550 hc        1 MOL      0.134629
    138 H59         7.0440    3.4640    0.6630 hc        1 MOL      0.134629
    139 H60         5.8310    1.7820    3.5190 ha        1 MOL      0.139494
    140 H61         9.2050    1.9540    0.8550 ha        1 MOL      0.139494
    141 H62         7.0660    0.3690    4.9640 ha        1 MOL      0.147908
    142 H63        10.5920    0.6990    2.6250 ha        1 MOL      0.147908
    143 H64         9.1280   -0.8060    5.5060 ho        1 MOL      0.440115
    144 N13         6.3180   -0.7330    0.5060 n         1 MOL     -0.503309
    145 C48         5.8790   -2.0540    1.0530 c3        1 MOL      0.270118
    146 C49         4.9950   -2.8680    0.0720 c         1 MOL      0.469088
    147 O21         4.5080   -3.9520    0.4240 o         1 MOL     -0.539761
    148 C50         5.2180   -1.8740    2.5010 c3        1 MOL     -0.019384
    149 C51         5.5010   -3.1470    3.3590 c3        1 MOL     -0.175462
    150 C52         5.2990   -2.9140    4.8230 c         1 MOL      0.784630
    151 O22         6.0870   -3.4010    5.6480 o         1 MOL     -0.760314
    152 O23         4.4230   -2.1560    5.1890 o         1 MOL     -0.760314
    153 H65         7.3000   -0.4760    0.5570 hn        1 MOL      0.238617
    154 H66         6.7820   -2.6610    1.0440 h1        1 MOL      0.046089
    155 H67         4.1270   -1.8510    2.4050 hc        1 MOL      0.051415
    156 H68         5.6430   -0.9770    2.9390 hc        1 MOL      0.051415
    157 H69         6.4840   -3.5650    3.1820 hc        1 MOL     -0.018216
    158 H70         4.8380   -3.9680    3.0950 hc        1 MOL     -0.018216
    159 N14         4.9700   -2.6580   -1.2710 n         1 MOL     -0.479345
    160 C53         4.0400   -3.3450   -2.2410 c3        1 MOL      0.028593
    161 C54         4.6720   -4.3060   -3.1630 c         1 MOL      0.456795
    162 O24         3.9540   -5.0570   -3.8340 o         1 MOL     -0.514058
    163 C55         3.1810   -2.2720   -2.9060 c3        1 MOL      0.098113
    164 C56         1.7680   -2.7610   -3.0690 c3        1 MOL     -0.039024
    165 C57         1.0290   -3.0290   -1.7750 c         1 MOL      0.803840
    166 O25         0.7430   -4.1990   -1.4460 o         1 MOL     -0.768593
    167 O26         0.7960   -2.0390   -1.0060 o         1 MOL     -0.768593
    168 H71         5.5610   -1.9500   -1.6830 hn        1 MOL      0.216246
    169 H72         3.3680   -3.9630   -1.6490 h1        1 MOL      0.161266
    170 H73         3.6610   -1.9950   -3.8560 hc        1 MOL     -0.033609
    171 H74         3.1010   -1.3580   -2.3270 hc        1 MOL     -0.033609
    172 H75         1.5880   -3.6360   -3.7020 hc        1 MOL      0.001859
    173 H76         1.3560   -1.9520   -3.6720 hc        1 MOL      0.001859
    174 N15         6.0040   -4.3610   -3.1940 n         1 MOL     -0.305278
    175 C58         6.7240   -5.4080   -3.9600 c3        1 MOL     -0.122959
    176 H77         7.6730   -5.0080   -4.3180 h1        1 MOL      0.073071
    177 H78         6.9130   -6.2660   -3.3140 h1        1 MOL      0.073071
    178 H79         6.1170   -5.7190   -4.8100 h1        1 MOL      0.073071
    179 H80         6.5670   -3.7890   -2.5810 hn        1 MOL      0.244667
    180 Ca1        -0.3870   -3.3690    0.8860 Ca        1 MOL      1.803894
    181 O27        -2.4480   -1.5500    0.8200 oh        1 MOL     -0.881943
    182 H81        -3.3560   -1.8370    0.7280 ho        1 MOL      0.430786
    183 H82        -2.4710   -0.6110    0.6140 ho        1 MOL      0.430786
    184 O28         0.5310   -1.0550    1.9110 oh        1 MOL     -0.881943
    185 H83         0.6530   -0.6940    2.7960 ho        1 MOL      0.430786
    186 H84         0.6970   -0.3120    1.3310 ho        1 MOL      0.430786
    187 O29        -0.3820   -6.0790    1.3510 oh        1 MOL     -0.881943
    188 H85        -1.3070   -6.2450    1.5100 ho        1 MOL      0.430786
    189 H86         0.0680   -6.5230    2.0620 ho        1 MOL      0.430786
    190 O30         2.1910   -3.9630    1.7230 oh        1 MOL     -0.881943
    191 H87         2.9090   -3.7410    1.1430 ho        1 MOL      0.430786
    192 H88         2.6060   -4.2420    2.5380 ho        1 MOL      0.430786
    193 O31        -0.0890   -3.7020    3.5610 oh        1 MOL     -0.881943
    194 H89         0.5450   -3.1390    4.0020 ho        1 MOL      0.430786
    195 H90        -0.9360   -3.3040    3.7570 ho        1 MOL      0.430786
@<TRIPOS>BOND
     1    1    2 1   
     2    1    4 1   
     3    1    5 1   
     4    1    6 1   
     5    2    3 2   
     6    2    7 1   
     7    7    8 1   
     8    7   15 1   
     9    8    9 1   
    10    8   11 1   
    11    8   16 1   
    12    9   10 2   
    13    9   19 1   
    14   11   12 1   
    15   11   17 1   
    16   11   18 1   
    17   12   13 1   
    18   12   14 1   
    19   19   20 1   
    20   19   27 1   
    21   20   21 1   
    22   20   23 1   
    23   20   28 1   
    24   21   22 2   
    25   21   38 1   
    26   23   24 1   
    27   23   25 1   
    28   23   29 1   
    29   24   26 1   
    30   24   30 1   
    31   24   31 1   
    32   25   32 1   
    33   25   33 1   
    34   25   34 1   
    35   26   35 1   
    36   26   36 1   
    37   26   37 1   
    38   38   39 1   
    39   38   46 1   
    40   39   40 1   
    41   39   42 1   
    42   39   47 1   
    43   40   41 2   
    44   40   50 1   
    45   42   43 1   
    46   42   48 1   
    47   42   49 1   
    48   43   44 1   
    49   43   45 1   
    50   50   51 1   
    51   50   54 1   
    52   51   52 1   
    53   51   55 1   
    54   51   56 1   
    55   52   53 2   
    56   52   57 1   
    57   57   58 1   
    58   57   65 1   
    59   58   59 1   
    60   58   61 1   
    61   58   66 1   
    62   59   60 2   
    63   59   69 1   
    64   61   62 1   
    65   61   67 1   
    66   61   68 1   
    67   62   63 1   
    68   62   64 1   
    69   69   70 1   
    70   69   73 1   
    71   70   71 1   
    72   70   74 1   
    73   70   75 1   
    74   71   72 2   
    75   71   76 1   
    76   76   77 1   
    77   76   85 1   
    78   77   78 1   
    79   77   80 1   
    80   77   86 1   
    81   78   79 2   
    82   78   93 1   
    83   80   81 1   
    84   80   87 1   
    85   80   88 1   
    86   81   82 1   
    87   81   89 1   
    88   81   90 1   
    89   82   83 1   
    90   82   84 2   
    91   83   91 1   
    92   83   92 1   
    93   93   94 1   
    94   93  100 1   
    95   94   95 1   
    96   94   97 1   
    97   94  101 1   
    98   95   96 2   
    99   95  109 1   
   100   97   98 1   
   101   97   99 1   
   102   97  102 1   
   103   98  103 1   
   104   98  104 1   
   105   98  105 1   
   106   99  106 1   
   107   99  107 1   
   108   99  108 1   
   109  109  110 1   
   110  109  117 1   
   111  110  111 1   
   112  110  113 1   
   113  110  118 1   
   114  111  112 2   
   115  111  123 1   
   116  113  114 1   
   117  113  119 1   
   118  113  120 1   
   119  114  115 1   
   120  114  116 2   
   121  115  121 1   
   122  115  122 1   
   123  123  124 1   
   124  123  135 1   
   125  124  125 1   
   126  124  127 1   
   127  124  136 1   
   128  125  126 2   
   129  125  144 1   
   130  127  128 1   
   131  127  137 1   
   132  127  138 1   
   133  128  129 ar  
   134  128  130 ar  
   135  129  131 ar  
   136  129  139 1   
   137  130  132 ar  
   138  130  140 1   
   139  131  133 ar  
   140  131  141 1   
   141  132  133 ar  
   142  132  142 1   
   143  133  134 1   
   144  134  143 1   
   145  144  145 1   
   146  144  153 1   
   147  145  146 1   
   148  145  148 1   
   149  145  154 1   
   150  146  147 2   
   151  146  159 1   
   152  148  149 1   
   153  148  155 1   
   154  148  156 1   
   155  149  150 1   
   156  149  157 1   
   157  149  158 1   
   158  150  151 1   
   159  150  152 1   
   160  159  160 1   
   161  159  168 1   
   162  160  161 1   
   163  160  163 1   
   164  160  169 1   
   165  161  162 2   
   166  161  174 1   
   167  163  164 1   
   168  163  170 1   
   169  163  171 1   
   170  164  165 1   
   171  164  172 1   
   172  164  173 1   
   173  165  166 1   
   174  165  167 1   
   175  174  175 1   
   176  174  179 1   
   177  175  176 1   
   178  175  177 1   
   179  175  178 1   
   180  181  182 1   
   181  181  183 1   
   182  184  185 1   
   183  184  186 1   
   184  187  188 1   
   185  187  189 1   
   186  190  191 1   
   187  190  192 1   
   188  193  194 1   
   189  193  195 1   
@<TRIPOS>SUBSTRUCTURE
     1 MOL         1 TEMP              0 ****  ****    0 ROOT
