@<TRIPOS>MOLECULE
MOL
  181   177     1     0     0
SMALL
resp


@<TRIPOS>ATOM
      1 C1         -2.3910    0.4170    4.1180 c3        1 MOL     -0.293355
      2 C2         -2.8400   -0.9610    3.7570 c         1 MOL      0.577071
      3 O1         -2.0280   -1.7650    3.1790 o         1 MOL     -0.574502
      4 H1         -3.2330    0.9770    4.5270 hc        1 MOL      0.072586
      5 H2         -1.5990    0.3580    4.8640 hc        1 MOL      0.072586
      6 H3         -2.0160    0.9230    3.2280 hc        1 MOL      0.072586
      7 N1         -4.1470   -1.3130    3.9880 n         1 MOL     -0.407505
      8 C3         -4.8000   -2.5290    3.6510 c3        1 MOL      0.102835
      9 C4         -5.4210   -2.4010    2.2040 c         1 MOL      0.478043
     10 O2         -5.3140   -3.3570    1.4050 o         1 MOL     -0.550732
     11 C5         -5.8930   -2.9090    4.6410 c3        1 MOL     -0.272458
     12 C6         -6.9150   -1.8720    5.0340 c         1 MOL      0.730286
     13 O3         -6.6960   -0.6660    4.9090 o         1 MOL     -0.708325
     14 O4         -7.9020   -2.2330    5.6640 o         1 MOL     -0.708325
     15 H4         -4.6580   -0.5390    4.3970 hn        1 MOL      0.255822
     16 H5         -4.0760   -3.3470    3.6290 h1        1 MOL      0.062963
     17 H6         -5.4210   -3.3540    5.5130 hc        1 MOL      0.055658
     18 H7         -6.5110   -3.6890    4.1900 hc        1 MOL      0.055658
     19 N2         -5.9500   -1.2130    1.8800 n         1 MOL     -0.189712
     20 C7         -6.5330   -0.8320    0.6600 c3        1 MOL      0.031677
     21 C8         -5.5440   -0.9040   -0.4900 c         1 MOL      0.605358
     22 O5         -4.6220   -0.1320   -0.4570 o         1 MOL     -0.606719
     23 C9         -7.8730   -1.5010    0.5310 c3        1 MOL     -0.206380
     24 H8         -5.9500   -0.5850    2.6660 hn        1 MOL      0.175439
     25 H9         -6.6660    0.2480    0.7500 h1        1 MOL      0.055834
     26 H10        -7.7410   -2.5600    0.3210 hc        1 MOL      0.052102
     27 H11        -8.5410   -1.4380    1.3840 hc        1 MOL      0.052102
     28 H12        -8.4690   -1.1130   -0.3010 hc        1 MOL      0.052102
     29 N3         -5.8200   -1.7420   -1.4850 n         1 MOL     -0.678792
     30 C10        -4.8710   -2.0010   -2.5460 c3        1 MOL      0.529208
     31 C11        -4.4100   -3.4720   -2.5290 c         1 MOL      0.334190
     32 O6         -4.1950   -4.0900   -3.5750 o         1 MOL     -0.519598
     33 C12        -5.2920   -1.4830   -3.9790 c3        1 MOL     -0.309550
     34 C13        -5.6980   -0.0140   -3.8970 c         1 MOL      0.734385
     35 O7         -5.0610    0.7510   -3.1300 o         1 MOL     -0.712675
     36 O8         -6.5650    0.4760   -4.6850 o         1 MOL     -0.712675
     37 H13        -6.7280   -2.2030   -1.4710 hn        1 MOL      0.325749
     38 H14        -3.9830   -1.3680   -2.4320 h1        1 MOL     -0.083060
     39 H15        -6.1600   -2.0950   -4.2190 hc        1 MOL      0.049996
     40 H16        -4.5110   -1.6420   -4.7230 hc        1 MOL      0.049996
     41 N4         -4.2910   -4.1300   -1.3570 n         1 MOL     -0.170807
     42 C14        -3.7640   -5.4990   -1.1940 c3        1 MOL     -0.131183
     43 C15        -2.2930   -5.6920   -1.4780 c         1 MOL      0.618471
     44 O9         -1.8660   -6.7340   -1.9240 o         1 MOL     -0.567318
     45 H17        -4.7700   -3.6990   -0.5800 hn        1 MOL      0.175890
     46 H18        -4.3130   -6.2420   -1.7810 h1        1 MOL      0.067465
     47 H19        -3.9510   -5.7520   -0.1490 h1        1 MOL      0.067465
     48 N5         -1.4520   -4.6350   -1.2870 n         1 MOL     -0.364523
     49 C16        -0.0650   -4.6550   -1.7410 c3        1 MOL      0.073086
     50 C17         0.9890   -5.3900   -0.8970 c         1 MOL      0.462517
     51 O10         0.7840   -5.7090    0.2800 o         1 MOL     -0.501765
     52 C18         0.2470   -3.1200   -1.9570 c3        1 MOL     -0.193261
     53 C19        -0.5150   -2.5180   -3.1590 c         1 MOL      0.692212
     54 N6         -1.2910   -1.4920   -2.9810 n         1 MOL     -0.792476
     55 O11        -0.4180   -2.9620   -4.3100 o         1 MOL     -0.617358
     56 H20        -1.8960   -3.8390   -0.8620 hn        1 MOL      0.216397
     57 H21        -0.0980   -5.1140   -2.7260 h1        1 MOL      0.077712
     58 H22         1.3100   -3.0020   -2.1810 hc        1 MOL      0.070231
     59 H23         0.0940   -2.5850   -1.0200 hc        1 MOL      0.070231
     60 H24        -1.2980   -1.0120   -2.0910 hn        1 MOL      0.355880
     61 H25        -1.7190   -1.1500   -3.8260 hn        1 MOL      0.355880
     62 N7          2.1150   -5.7560   -1.5930 n         1 MOL     -0.424506
     63 C20         3.3280   -6.3760   -1.1180 c3        1 MOL      0.014309
     64 C21         4.4830   -5.4650   -1.1310 c         1 MOL      0.617300
     65 O12         4.6500   -4.6430   -2.0390 o         1 MOL     -0.513166
     66 H26         2.1360   -5.4500   -2.5530 hn        1 MOL      0.254906
     67 H27         3.6820   -7.1550   -1.7900 h1        1 MOL      0.065943
     68 H28         3.2570   -6.9340   -0.1770 h1        1 MOL      0.065943
     69 N8          5.3550   -5.5860   -0.0960 n         1 MOL     -0.590773
     70 C22         6.5440   -4.6850   -0.0450 c3        1 MOL     -0.198744
     71 C23         6.3980   -3.2470    0.4380 c         1 MOL      0.450253
     72 O13         7.3370   -2.4400    0.4390 o         1 MOL     -0.540243
     73 C24         7.7580   -5.2730    0.7360 c3        1 MOL      0.549597
     74 C25         7.5220   -5.3860    2.2330 c3        1 MOL     -0.326375
     75 O14         8.2130   -6.5250    0.2500 oh        1 MOL     -0.647076
     76 H29         5.2500   -6.2380    0.6650 hn        1 MOL      0.313302
     77 H30         6.9370   -4.5750   -1.0530 h1        1 MOL      0.134748
     78 H31         8.5320   -4.5360    0.5160 h1        1 MOL      0.001735
     79 H32         7.4610   -7.1220    0.3080 ho        1 MOL      0.371430
     80 H33         6.6150   -5.9520    2.4290 hc        1 MOL      0.068240
     81 H34         8.3960   -5.9160    2.6070 hc        1 MOL      0.068240
     82 H35         7.4150   -4.3870    2.6540 hc        1 MOL      0.068240
     83 N9          5.1620   -2.9490    0.8390 n         1 MOL      0.006237
     84 C26         4.6000   -1.6630    1.1790 c3        1 MOL     -0.323604
     85 C27         3.2540   -1.5730    0.4890 c         1 MOL      0.449951
     86 O15         2.5500   -2.5490    0.2070 o         1 MOL     -0.365589
     87 C28         4.5810   -1.5390    2.7210 c3        1 MOL      0.184558
     88 C29         3.7990   -2.7030    3.3970 c3        1 MOL     -0.014889
     89 C30         5.9780   -1.5530    3.3740 c3        1 MOL     -0.362676
     90 C31         3.2700   -2.3520    4.8200 c3        1 MOL     -0.210450
     91 H36         4.4590   -3.6350    0.6330 hn        1 MOL      0.075330
     92 H37         5.2730   -0.8610    0.8920 h1        1 MOL      0.175722
     93 H38         4.1680   -0.5640    2.9660 hc        1 MOL      0.022418
     94 H39         4.3700   -3.6410    3.4330 hc        1 MOL      0.050614
     95 H40         2.8940   -2.8410    2.8080 hc        1 MOL      0.050614
     96 H41         6.6220   -0.9420    2.7330 hc        1 MOL      0.082555
     97 H42         5.9120   -1.1030    4.3740 hc        1 MOL      0.082555
     98 H43         6.3050   -2.5900    3.4550 hc        1 MOL      0.082555
     99 H44         3.1620   -3.2740    5.3870 hc        1 MOL      0.053298
    100 H45         3.9810   -1.7100    5.3380 hc        1 MOL      0.053298
    101 H46         2.4040   -1.6910    4.8460 hc        1 MOL      0.053298
    102 N10         2.8760   -0.3130    0.1240 n         1 MOL     -0.345631
    103 C32         1.7310    0.0010   -0.7480 c3        1 MOL     -0.063061
    104 C33         1.9970    1.2280   -1.6620 c         1 MOL      0.385142
    105 O16         1.2600    1.3730   -2.6630 o         1 MOL     -0.530675
    106 C34         0.6080    0.3620    0.2990 c3        1 MOL     -0.321098
    107 C35        -0.7370    0.8330   -0.3150 c         1 MOL      0.756695
    108 O17        -1.6110   -0.0160   -0.6230 o         1 MOL     -0.694242
    109 O18        -0.9080    2.0010   -0.5730 o         1 MOL     -0.694242
    110 H47         3.5750    0.3970    0.2970 hn        1 MOL      0.196218
    111 H48         1.5040   -0.8510   -1.3860 h1        1 MOL      0.149194
    112 H49         1.0020    1.1190    0.9730 hc        1 MOL      0.120186
    113 H50         0.4150   -0.5980    0.7840 hc        1 MOL      0.120186
    114 N11         2.9300    2.1160   -1.3040 n         1 MOL     -0.121128
    115 C36         3.2740    3.3870   -1.9730 c3        1 MOL      0.155883
    116 C37         3.1400    4.5570   -1.0380 c         1 MOL      0.210012
    117 O19         3.4060    4.3350    0.1950 o         1 MOL     -0.492849
    118 C38         4.6260    3.2790   -2.5430 c3        1 MOL     -0.158763
    119 C39         5.7880    2.7710   -1.6880 ca        1 MOL      0.005034
    120 C40         6.6020    3.6150   -0.8870 ca        1 MOL     -0.105478
    121 C41         5.9400    1.4010   -1.4540 ca        1 MOL     -0.105478
    122 C42         7.5430    3.1400    0.0650 ca        1 MOL     -0.134776
    123 C43         6.8640    0.8960   -0.5240 ca        1 MOL     -0.134776
    124 C44         7.5900    1.7500    0.2860 ca        1 MOL     -0.096609
    125 H51         3.1940    2.1410   -0.3230 hn        1 MOL      0.254354
    126 H52         2.5900    3.5460   -2.8020 h1        1 MOL      0.025454
    127 H53         4.9280    4.2260   -2.9910 hc        1 MOL      0.066493
    128 H54         4.6090    2.5650   -3.3670 hc        1 MOL      0.066493
    129 H55         6.5300    4.6740   -1.1160 ha        1 MOL      0.088928
    130 H56         5.2550    0.7260   -1.9570 ha        1 MOL      0.088928
    131 H57         8.0880    3.8450    0.6790 ha        1 MOL      0.116326
    132 H58         6.9320   -0.1600   -0.3590 ha        1 MOL      0.116326
    133 H59         8.2090    1.3560    1.0780 ha        1 MOL      0.108744
    134 N12         2.7040    5.7160   -1.5310 n         1 MOL      0.034305
    135 C45         2.5560    7.0320   -0.8090 c3        1 MOL      0.029375
    136 C46         1.9240    6.9440    0.5920 c         1 MOL      0.267290
    137 O20         2.2690    7.7870    1.4120 o         1 MOL     -0.536160
    138 C47         1.6800    7.9470   -1.7160 c3        1 MOL      0.011437
    139 C48         1.9860    7.3710   -3.0990 c3        1 MOL      0.015012
    140 C49         2.2840    5.9100   -2.8750 c3        1 MOL     -0.212265
    141 H60         3.5500    7.4650   -0.7440 h1        1 MOL      0.072473
    142 H61         0.6110    7.8260   -1.5100 hc        1 MOL      0.021395
    143 H62         1.9640    8.9930   -1.6970 hc        1 MOL      0.021395
    144 H63         1.2510    7.5670   -3.8810 hc        1 MOL      0.022539
    145 H64         2.9050    7.8440   -3.4490 hc        1 MOL      0.022539
    146 H65         1.3420    5.4000   -3.0360 h1        1 MOL      0.098986
    147 H66         3.0330    5.5370   -3.5740 h1        1 MOL      0.098986
    148 N13         1.0700    6.0440    0.9010 n         1 MOL      0.135592
    149 C50         0.2710    6.0380    2.1620 c3        1 MOL     -0.308251
    150 C51         1.0490    5.3140    3.2960 c         1 MOL      0.552030
    151 O21         0.8580    5.5930    4.4670 o         1 MOL     -0.543017
    152 C52        -1.1120    5.3770    1.9410 c3        1 MOL     -0.012833
    153 C53        -2.1130    6.2540    1.0950 c3        1 MOL     -0.101098
    154 C54        -3.1590    5.3130    0.5160 c         1 MOL      0.600781
    155 O22        -2.7620    4.5100   -0.4050 o         1 MOL     -0.679060
    156 O23        -4.2590    5.1800    1.0970 o         1 MOL     -0.679060
    157 H67         0.8050    5.4070    0.1690 hn        1 MOL      0.111215
    158 H68         0.0770    7.0690    2.4500 h1        1 MOL      0.149706
    159 H69        -1.5300    5.1540    2.9170 hc        1 MOL      0.061960
    160 H70        -0.9260    4.4010    1.4790 hc        1 MOL      0.061960
    161 H71        -1.6630    6.8210    0.2830 hc        1 MOL      0.016938
    162 H72        -2.5960    7.0390    1.6740 hc        1 MOL      0.016938
    163 N14         1.9040    4.3560    2.9330 n         1 MOL     -0.247017
    164 C55         2.9750    3.8110    3.7830 c3        1 MOL     -0.348779
    165 H73         3.6640    3.2310    3.1700 h1        1 MOL      0.139822
    166 H74         3.5150    4.6310    4.2590 h1        1 MOL      0.139822
    167 H75         2.5410    3.1690    4.5490 h1        1 MOL      0.139822
    168 H76         1.9630    4.2420    1.9310 hn        1 MOL      0.190779
    169 Ca1        -3.3830    1.9980   -1.3650 Ca        1 MOL      1.771713
    170 O24        -5.6960    3.1020   -0.7500 oh        1 MOL     -0.849465
    171 H77        -6.4480    2.6150   -1.0670 ho        1 MOL      0.408136
    172 H78        -6.0730    3.7880   -0.1980 ho        1 MOL      0.408136
    173 O25        -1.3910    1.5160   -3.4720 oh        1 MOL     -0.849465
    174 H79        -0.4890    1.4260   -3.1670 ho        1 MOL      0.408136
    175 H80        -1.3760    1.1890   -4.3700 ho        1 MOL      0.408136
    176 O26        -3.8630    2.2290    1.2930 oh        1 MOL     -0.849465
    177 H81        -4.4850    1.9120    1.9470 ho        1 MOL      0.408136
    178 H82        -3.8700    3.1820    1.3940 ho        1 MOL      0.408136
    179 O27        -3.6350    3.8880   -3.4570 oh        1 MOL     -0.849465
    180 H83        -3.0050    4.6090   -3.4640 ho        1 MOL      0.408136
    181 H84        -4.3070    4.1500   -4.0880 ho        1 MOL      0.408136
@<TRIPOS>BOND
     1    1    2 1   
     2    1    4 1   
     3    1    5 1   
     4    1    6 1   
     5    2    3 2   
     6    2    7 1   
     7    7    8 1   
     8    7   15 1   
     9    8    9 1   
    10    8   11 1   
    11    8   16 1   
    12    9   10 2   
    13    9   19 1   
    14   11   12 1   
    15   11   17 1   
    16   11   18 1   
    17   12   13 1   
    18   12   14 1   
    19   19   20 1   
    20   19   24 1   
    21   20   21 1   
    22   20   23 1   
    23   20   25 1   
    24   21   22 2   
    25   21   29 1   
    26   23   26 1   
    27   23   27 1   
    28   23   28 1   
    29   29   30 1   
    30   29   37 1   
    31   30   31 1   
    32   30   33 1   
    33   30   38 1   
    34   31   32 2   
    35   31   41 1   
    36   33   34 1   
    37   33   39 1   
    38   33   40 1   
    39   34   35 1   
    40   34   36 1   
    41   41   42 1   
    42   41   45 1   
    43   42   43 1   
    44   42   46 1   
    45   42   47 1   
    46   43   44 2   
    47   43   48 1   
    48   48   49 1   
    49   48   56 1   
    50   49   50 1   
    51   49   52 1   
    52   49   57 1   
    53   50   51 2   
    54   50   62 1   
    55   52   53 1   
    56   52   58 1   
    57   52   59 1   
    58   53   54 1   
    59   53   55 2   
    60   54   60 1   
    61   54   61 1   
    62   62   63 1   
    63   62   66 1   
    64   63   64 1   
    65   63   67 1   
    66   63   68 1   
    67   64   65 2   
    68   64   69 1   
    69   69   70 1   
    70   69   76 1   
    71   70   71 1   
    72   70   73 1   
    73   70   77 1   
    74   71   72 2   
    75   71   83 1   
    76   73   74 1   
    77   73   75 1   
    78   73   78 1   
    79   74   80 1   
    80   74   81 1   
    81   74   82 1   
    82   75   79 1   
    83   83   84 1   
    84   83   91 1   
    85   84   85 1   
    86   84   87 1   
    87   84   92 1   
    88   85   86 2   
    89   85  102 1   
    90   87   88 1   
    91   87   89 1   
    92   87   93 1   
    93   88   90 1   
    94   88   94 1   
    95   88   95 1   
    96   89   96 1   
    97   89   97 1   
    98   89   98 1   
    99   90   99 1   
   100   90  100 1   
   101   90  101 1   
   102  102  103 1   
   103  102  110 1   
   104  103  104 1   
   105  103  106 1   
   106  103  111 1   
   107  104  105 2   
   108  104  114 1   
   109  106  107 1   
   110  106  112 1   
   111  106  113 1   
   112  107  108 1   
   113  107  109 1   
   114  114  115 1   
   115  114  125 1   
   116  115  116 1   
   117  115  118 1   
   118  115  126 1   
   119  116  117 2   
   120  116  134 1   
   121  118  119 1   
   122  118  127 1   
   123  118  128 1   
   124  119  120 ar  
   125  119  121 ar  
   126  120  122 ar  
   127  120  129 1   
   128  121  123 ar  
   129  121  130 1   
   130  122  124 ar  
   131  122  131 1   
   132  123  124 ar  
   133  123  132 1   
   134  124  133 1   
   135  134  135 1   
   136  134  140 1   
   137  135  136 1   
   138  135  138 1   
   139  135  141 1   
   140  136  137 2   
   141  136  148 1   
   142  138  139 1   
   143  138  142 1   
   144  138  143 1   
   145  139  140 1   
   146  139  144 1   
   147  139  145 1   
   148  140  146 1   
   149  140  147 1   
   150  148  149 1   
   151  148  157 1   
   152  149  150 1   
   153  149  152 1   
   154  149  158 1   
   155  150  151 2   
   156  150  163 1   
   157  152  153 1   
   158  152  159 1   
   159  152  160 1   
   160  153  154 1   
   161  153  161 1   
   162  153  162 1   
   163  154  155 1   
   164  154  156 1   
   165  163  164 1   
   166  163  168 1   
   167  164  165 1   
   168  164  166 1   
   169  164  167 1   
   170  170  171 1   
   171  170  172 1   
   172  173  174 1   
   173  173  175 1   
   174  176  177 1   
   175  176  178 1   
   176  179  180 1   
   177  179  181 1   
@<TRIPOS>SUBSTRUCTURE
     1 MOL         1 TEMP              0 ****  ****    0 ROOT
