@<TRIPOS>MOLECULE
MOL
  195   189     1     0     0
SMALL
resp


@<TRIPOS>ATOM
      1 C1          2.1690   -7.6950    2.2210 c3        1 MOL     -0.304060
      2 C2          2.2150   -6.1520    2.2320 c         1 MOL      0.644911
      3 O1          2.1080   -5.4240    3.2390 o         1 MOL     -0.564691
      4 H1          1.6440   -8.0490    3.1080 hc        1 MOL      0.082123
      5 H2          1.6450   -8.0370    1.3280 hc        1 MOL      0.082123
      6 H3          3.1860   -8.0890    2.2200 hc        1 MOL      0.082123
      7 N1          2.4470   -5.5850    1.0320 n         1 MOL     -0.645096
      8 C3          2.5180   -4.1040    0.8600 c3        1 MOL      0.323880
      9 C4          1.0720   -3.5680    0.6750 c         1 MOL      0.335724
     10 O2          0.8610   -2.2860    0.7810 o         1 MOL     -0.493412
     11 C5          3.3060   -3.6390   -0.3970 c3        1 MOL     -0.250157
     12 C6          3.4210   -4.4770   -1.6520 c         1 MOL      0.831031
     13 O3          3.5060   -3.7810   -2.7170 o         1 MOL     -0.750431
     14 O4          3.4060   -5.7190   -1.6110 o         1 MOL     -0.750431
     15 H4          2.6470   -6.1980    0.2500 hn        1 MOL      0.367122
     16 H5          3.0210   -3.6620    1.7140 h1        1 MOL      0.069256
     17 H6          4.3310   -3.6220   -0.0170 hc        1 MOL      0.035065
     18 H7          3.1400   -2.5930   -0.6440 hc        1 MOL      0.035065
     19 N2          0.1320   -4.3980    0.3720 n         1 MOL     -0.310684
     20 C7         -1.1850   -4.0610   -0.2150 c3        1 MOL      0.198627
     21 C8         -2.1350   -3.8260    1.0150 c         1 MOL      0.376868
     22 O5         -2.1550   -4.6810    1.9310 o         1 MOL     -0.534531
     23 C9         -1.6540   -5.1030   -1.2030 c3        1 MOL     -0.287365
     24 C10        -0.6720   -5.4640   -2.3660 c3        1 MOL      0.025532
     25 C11        -0.1620   -4.1930   -3.0350 c3        1 MOL     -0.014628
     26 C12         0.5230   -4.7180   -4.3010 c3        1 MOL      0.029043
     27 N3          1.5390   -3.7160   -4.6890 n4        1 MOL     -0.351473
     28 H8          0.1840   -5.3930    0.5380 hn        1 MOL      0.256869
     29 H9         -1.1130   -3.1270   -0.7660 h1        1 MOL      0.073308
     30 H10        -2.6420   -4.7620   -1.5350 hc        1 MOL      0.096511
     31 H11        -1.7650   -6.0520   -0.6810 hc        1 MOL      0.096511
     32 H12        -1.0690   -6.1920   -3.0720 hc        1 MOL      0.022766
     33 H13         0.1180   -5.9690   -1.8030 hc        1 MOL      0.022766
     34 H14         0.5680   -3.5850   -2.4890 hc        1 MOL      0.044862
     35 H15        -0.9890   -3.5700   -3.3940 hc        1 MOL      0.044862
     36 H16        -0.1150   -4.7760   -5.1820 hx        1 MOL      0.068513
     37 H17         0.9060   -5.7160   -4.1160 hx        1 MOL      0.068513
     38 H18         1.0740   -2.8500   -4.9300 hn        1 MOL      0.299125
     39 H19         2.1520   -3.6340   -3.8870 hn        1 MOL      0.299125
     40 H20         2.1050   -4.1150   -5.4270 hn        1 MOL      0.299125
     41 N4         -2.8650   -2.7070    1.1020 n         1 MOL     -0.327579
     42 C13        -3.0240   -1.4540    0.2390 c3        1 MOL      0.002180
     43 C14        -3.4280   -1.8680   -1.2110 c         1 MOL      0.359703
     44 O6         -2.7040   -1.6640   -2.1580 o         1 MOL     -0.581760
     45 C15        -1.7330   -0.5210    0.2970 c3        1 MOL     -0.070658
     46 C16        -1.3340   -0.1500    1.7160 c         1 MOL      0.874974
     47 O7         -1.6530   -0.7000    2.7540 o         1 MOL     -0.825655
     48 O8         -0.4820    0.7150    1.8820 o         1 MOL     -0.825655
     49 H21        -3.4910   -2.6700    1.8990 hn        1 MOL      0.271496
     50 H22        -3.7740   -0.7680    0.6350 h1        1 MOL      0.071100
     51 H23        -1.9800    0.4360   -0.1390 hc        1 MOL      0.029876
     52 H24        -0.9130   -0.9520   -0.2810 hc        1 MOL      0.029876
     53 N5         -4.6200   -2.3140   -1.4280 n         1 MOL     -0.175507
     54 C17        -5.7230   -2.5220   -0.4870 c3        1 MOL     -0.205715
     55 C18        -7.0830   -3.0570   -1.2420 c         1 MOL      0.475888
     56 O9         -7.1780   -4.0520   -1.9410 o         1 MOL     -0.532988
     57 H25        -4.7770   -2.5720   -2.3900 hn        1 MOL      0.253402
     58 H26        -5.9350   -1.5670   -0.0030 h1        1 MOL      0.095937
     59 H27        -5.4910   -3.3690    0.1690 h1        1 MOL      0.095937
     60 N6         -8.2660   -2.5860   -0.9520 n         1 MOL     -0.196918
     61 C19        -8.7330   -1.5560   -0.0190 c3        1 MOL     -0.087613
     62 C20        -8.3330   -0.2240   -0.6170 c         1 MOL      0.721281
     63 O10        -8.5060    0.0010   -1.7730 o         1 MOL     -0.557593
     64 C21       -10.2610   -1.6630    0.1450 c3        1 MOL     -0.357012
     65 C22       -11.2250   -1.9540   -1.0380 c         1 MOL      0.735599
     66 O11       -11.2260   -2.9490   -1.7670 o         1 MOL     -0.620001
     67 O12       -12.1610   -1.1650   -1.2320 o         1 MOL     -0.620001
     68 H28        -9.0810   -3.0550   -1.3050 hn        1 MOL      0.205596
     69 H29        -8.3180   -1.7160    0.9720 h1        1 MOL      0.059598
     70 H30       -10.6280   -0.7410    0.6000 hc        1 MOL      0.089674
     71 H31       -10.2880   -2.5080    0.8210 hc        1 MOL      0.089674
     72 N7         -7.6260    0.5670    0.1340 n         1 MOL     -0.463254
     73 C23        -7.0310    1.8690   -0.3590 c3        1 MOL     -0.033727
     74 C24        -5.7620    2.4190    0.3180 c         1 MOL      0.508211
     75 O13        -4.8220    1.6470    0.5650 o         1 MOL     -0.452669
     76 H32        -7.4350    0.1420    1.0320 hn        1 MOL      0.241302
     77 H33        -7.7960    2.6430   -0.3170 h1        1 MOL      0.071759
     78 H34        -6.8590    1.8530   -1.4380 h1        1 MOL      0.071759
     79 N8         -5.6260    3.7410    0.5690 n         1 MOL     -0.478959
     80 C25        -4.4110    4.3220    1.1210 c3        1 MOL      0.023072
     81 C26        -3.1410    3.8430    0.4480 c         1 MOL      0.262868
     82 O14        -2.0810    3.6800    1.1050 o         1 MOL     -0.419787
     83 C27        -4.3450    4.2130    2.6660 c3        1 MOL      0.518286
     84 C28        -4.3040    2.8060    3.3710 c3        1 MOL     -0.424559
     85 O15        -5.3420    4.9990    3.2590 oh        1 MOL     -0.683398
     86 H35        -6.4360    4.3410    0.4690 hn        1 MOL      0.322411
     87 H36        -4.5450    5.3830    0.8740 h1        1 MOL      0.098844
     88 H37        -3.4200    4.6970    2.9750 h1        1 MOL     -0.079704
     89 H38        -5.0400    5.3060    4.1190 ho        1 MOL      0.414058
     90 H39        -3.9370    3.0240    4.3730 hc        1 MOL      0.101066
     91 H40        -5.3450    2.5000    3.4470 hc        1 MOL      0.101066
     92 H41        -3.6080    2.1250    2.8740 hc        1 MOL      0.101066
     93 N9         -3.1270    3.7400   -0.8510 n         1 MOL     -0.128871
     94 C29        -1.9330    3.4610   -1.6550 c3        1 MOL     -0.265685
     95 C30        -1.0070    4.6920   -1.8480 c         1 MOL      0.555623
     96 O16        -1.2650    5.5640   -2.6940 o         1 MOL     -0.542702
     97 C31        -2.4040    2.8180   -3.0430 c3        1 MOL      0.189296
     98 C32        -3.3830    1.6170   -2.9000 c3        1 MOL     -0.128035
     99 C33        -1.1910    2.3580   -3.9190 c3        1 MOL     -0.314248
    100 C34        -3.9760    1.1470   -4.2810 c3        1 MOL     -0.133477
    101 H42        -4.0320    3.7880   -1.3130 hn        1 MOL      0.196619
    102 H43        -1.3510    2.7100   -1.1100 h1        1 MOL      0.051923
    103 H44        -3.0100    3.6140   -3.4670 hc        1 MOL      0.012314
    104 H45        -4.2240    1.7900   -2.2400 hc        1 MOL      0.096186
    105 H46        -2.8380    0.7350   -2.5640 hc        1 MOL      0.096186
    106 H47        -0.3840    3.0790   -3.8310 hc        1 MOL      0.082798
    107 H48        -0.8010    1.3880   -3.6020 hc        1 MOL      0.082798
    108 H49        -1.5280    2.3930   -4.9580 hc        1 MOL      0.082798
    109 H50        -4.2930    2.0060   -4.8730 hc        1 MOL      0.040718
    110 H51        -3.2160    0.6550   -4.8940 hc        1 MOL      0.040718
    111 H52        -4.8160    0.4570   -4.2420 hc        1 MOL      0.040718
    112 N10         0.0970    4.7000   -1.1370 n         1 MOL     -0.129844
    113 C35         1.2030    5.7370   -1.1350 c3        1 MOL     -0.222099
    114 C36         2.5230    5.0320   -1.4360 c         1 MOL      0.648657
    115 O17         3.3650    5.7830   -1.9550 o         1 MOL     -0.535080
    116 C37         1.1460    6.6290    0.0920 c3        1 MOL      0.307242
    117 C38         1.0110    5.9540    1.4440 c3        1 MOL     -0.200639
    118 O18        -0.0060    7.5100   -0.1060 oh        1 MOL     -0.589750
    119 H53         0.1640    3.9360   -0.4870 hn        1 MOL      0.226951
    120 H54         0.9690    6.3420   -2.0040 h1        1 MOL      0.149681
    121 H55         2.0340    7.2610    0.1350 h1        1 MOL      0.014812
    122 H56         0.3160    8.3170    0.3140 ho        1 MOL      0.372132
    123 H57         1.9180    5.3880    1.6300 hc        1 MOL      0.049125
    124 H58         0.8690    6.6400    2.2730 hc        1 MOL      0.049125
    125 H59         0.1310    5.3100    1.3820 hc        1 MOL      0.049125
    126 N11         2.5910    3.6880   -1.4520 n         1 MOL     -0.666015
    127 C39         3.7540    2.9210   -1.9220 c3        1 MOL      0.273244
    128 C40         5.0210    3.0730   -1.0840 c         1 MOL      0.328625
    129 O19         4.9470    3.5950   -0.0150 o         1 MOL     -0.431704
    130 C41         3.9930    3.0200   -3.3920 c3        1 MOL      0.249468
    131 C42         2.7100    2.9920   -4.3720 c3        1 MOL     -0.298201
    132 O20         4.6010    1.7920   -3.8370 oh        1 MOL     -0.692689
    133 H60         1.8200    3.1630   -1.0540 hn        1 MOL      0.341282
    134 H61         3.5450    1.8670   -1.7390 h1        1 MOL      0.084573
    135 H62         4.6780    3.8200   -3.6760 h1        1 MOL      0.027260
    136 H63         4.8140    1.9270   -4.7660 ho        1 MOL      0.409200
    137 H64         2.4110    4.0320   -4.2950 hc        1 MOL      0.083311
    138 H65         2.8410    2.7040   -5.4220 hc        1 MOL      0.083311
    139 H66         1.8710    2.4750   -3.9130 hc        1 MOL      0.083311
    140 N12         6.1490    2.4940   -1.4320 n         1 MOL     -0.292495
    141 C43         7.3360    2.3310   -0.5330 c3        1 MOL      0.024205
    142 C44         7.0620    1.3760    0.6880 c         1 MOL      0.412616
    143 O21         7.5820    1.6390    1.8040 o         1 MOL     -0.540664
    144 C45         8.4970    1.7930   -1.4020 c3        1 MOL     -0.245159
    145 C46         8.3380    0.3010   -1.8650 c3        1 MOL      0.188548
    146 C47         9.5090   -0.1550   -2.7830 c3        1 MOL      0.024473
    147 C48         9.5500   -1.5090   -3.4030 c3        1 MOL     -0.087929
    148 N13         8.2400   -1.7930   -4.0700 n4        1 MOL     -0.181277
    149 H67         6.1140    2.1150   -2.3730 hn        1 MOL      0.171117
    150 H68         7.6380    3.3190   -0.2050 h1        1 MOL      0.124474
    151 H69         9.4280    1.8860   -0.8370 hc        1 MOL      0.086190
    152 H70         8.5400    2.3720   -2.3300 hc        1 MOL      0.086190
    153 H71         7.4000    0.1750   -2.4120 hc        1 MOL     -0.021126
    154 H72         8.3310   -0.3560   -0.9900 hc        1 MOL     -0.021126
    155 H73        10.5000   -0.0300   -2.3230 hc        1 MOL      0.001441
    156 H74         9.4470    0.6080   -3.5670 hc        1 MOL      0.001441
    157 H75         9.7570   -2.3390   -2.7290 hx        1 MOL      0.123292
    158 H76        10.3710   -1.5260   -4.1180 hx        1 MOL      0.123292
    159 H77         7.5420   -1.8650   -3.3450 hn        1 MOL      0.227215
    160 H78         7.8500   -1.0500   -4.6360 hn        1 MOL      0.227215
    161 H79         8.3010   -2.5910   -4.6800 hn        1 MOL      0.227215
    162 N14         6.2130    0.3580    0.5770 n         1 MOL      0.011489
    163 C49         5.7680   -0.4040    1.7950 c3        1 MOL     -0.590392
    164 C50         6.5400   -1.6940    1.8400 c         1 MOL      0.434346
    165 O22         6.3430   -2.5790    1.0110 o         1 MOL     -0.523228
    166 C51         4.2610   -0.6630    1.6190 c3        1 MOL      0.410176
    167 C52         3.3870    0.5550    1.7690 c3        1 MOL     -0.003448
    168 C53         3.1130    0.9790    3.1810 c         1 MOL      0.894511
    169 O23         2.0510    1.5140    3.4640 o         1 MOL     -0.844924
    170 O24         3.8590    0.6040    4.0790 o         1 MOL     -0.844924
    171 H80         5.9380    0.0980   -0.3600 hn        1 MOL      0.130748
    172 H81         5.8150    0.1410    2.7430 h1        1 MOL      0.299973
    173 H82         3.9220   -1.4470    2.2930 hc        1 MOL     -0.024893
    174 H83         4.0940   -1.0500    0.6170 hc        1 MOL     -0.024893
    175 H84         2.4630    0.3320    1.2140 hc        1 MOL     -0.077794
    176 H85         3.9220    1.3100    1.1990 hc        1 MOL     -0.077794
    177 N15         7.4070   -1.8690    2.8500 n         1 MOL     -0.225708
    178 C54         8.4210   -2.9490    3.0100 c3        1 MOL     -0.076879
    179 H86         9.3950   -2.5830    2.6850 h1        1 MOL      0.071285
    180 H87         8.4750   -3.2460    4.0570 h1        1 MOL      0.071285
    181 H88         8.1360   -3.8090    2.4040 h1        1 MOL      0.071285
    182 H89         7.4420   -1.0620    3.4570 hn        1 MOL      0.239607
    183 Ca1        -0.0720    0.5470    4.4950 Ca        1 MOL      1.737983
    184 O25        -2.5160    0.7470    5.3950 oh        1 MOL     -0.851943
    185 H90        -3.1690    1.3780    5.0650 ho        1 MOL      0.417436
    186 H91        -3.0210   -0.0390    5.6000 ho        1 MOL      0.417436
    187 O26         1.1240   -1.8020    3.3730 oh        1 MOL     -0.851943
    188 H92         0.6380   -2.5830    3.6420 ho        1 MOL      0.417436
    189 H93         0.9420   -1.7120    2.4380 ho        1 MOL      0.417436
    190 O27        -0.8970    3.0000    3.6600 oh        1 MOL     -0.851943
    191 H94        -1.1180    3.2040    2.7520 ho        1 MOL      0.417436
    192 H95        -0.7590    3.8570    4.0710 ho        1 MOL      0.417436
    193 O28         2.0720   -0.5030    6.0560 oh        1 MOL     -0.851943
    194 H96         2.7450   -0.3570    5.3910 ho        1 MOL      0.417436
    195 H97         2.3700   -0.0190    6.8240 ho        1 MOL      0.417436
@<TRIPOS>BOND
     1    1    2 1   
     2    1    4 1   
     3    1    5 1   
     4    1    6 1   
     5    2    3 2   
     6    2    7 1   
     7    7    8 1   
     8    7   15 1   
     9    8    9 1   
    10    8   11 1   
    11    8   16 1   
    12    9   10 2   
    13    9   19 1   
    14   11   12 1   
    15   11   17 1   
    16   11   18 1   
    17   12   13 1   
    18   12   14 1   
    19   19   20 1   
    20   19   28 1   
    21   20   21 1   
    22   20   23 1   
    23   20   29 1   
    24   21   22 2   
    25   21   41 1   
    26   23   24 1   
    27   23   30 1   
    28   23   31 1   
    29   24   25 1   
    30   24   32 1   
    31   24   33 1   
    32   25   26 1   
    33   25   34 1   
    34   25   35 1   
    35   26   27 1   
    36   26   36 1   
    37   26   37 1   
    38   27   38 1   
    39   27   39 1   
    40   27   40 1   
    41   41   42 1   
    42   41   49 1   
    43   42   43 1   
    44   42   45 1   
    45   42   50 1   
    46   43   44 2   
    47   43   53 1   
    48   45   46 1   
    49   45   51 1   
    50   45   52 1   
    51   46   47 1   
    52   46   48 1   
    53   53   54 1   
    54   53   57 1   
    55   54   55 1   
    56   54   58 1   
    57   54   59 1   
    58   55   56 2   
    59   55   60 1   
    60   60   61 1   
    61   60   68 1   
    62   61   62 1   
    63   61   64 1   
    64   61   69 1   
    65   62   63 2   
    66   62   72 1   
    67   64   65 1   
    68   64   70 1   
    69   64   71 1   
    70   65   66 1   
    71   65   67 1   
    72   72   73 1   
    73   72   76 1   
    74   73   74 1   
    75   73   77 1   
    76   73   78 1   
    77   74   75 2   
    78   74   79 1   
    79   79   80 1   
    80   79   86 1   
    81   80   81 1   
    82   80   83 1   
    83   80   87 1   
    84   81   82 2   
    85   81   93 1   
    86   83   84 1   
    87   83   85 1   
    88   83   88 1   
    89   84   90 1   
    90   84   91 1   
    91   84   92 1   
    92   85   89 1   
    93   93   94 1   
    94   93  101 1   
    95   94   95 1   
    96   94   97 1   
    97   94  102 1   
    98   95   96 2   
    99   95  112 1   
   100   97   98 1   
   101   97   99 1   
   102   97  103 1   
   103   98  100 1   
   104   98  104 1   
   105   98  105 1   
   106   99  106 1   
   107   99  107 1   
   108   99  108 1   
   109  100  109 1   
   110  100  110 1   
   111  100  111 1   
   112  112  113 1   
   113  112  119 1   
   114  113  114 1   
   115  113  116 1   
   116  113  120 1   
   117  114  115 2   
   118  114  126 1   
   119  116  117 1   
   120  116  118 1   
   121  116  121 1   
   122  117  123 1   
   123  117  124 1   
   124  117  125 1   
   125  118  122 1   
   126  126  127 1   
   127  126  133 1   
   128  127  128 1   
   129  127  130 1   
   130  127  134 1   
   131  128  129 2   
   132  128  140 1   
   133  130  131 1   
   134  130  132 1   
   135  130  135 1   
   136  131  137 1   
   137  131  138 1   
   138  131  139 1   
   139  132  136 1   
   140  140  141 1   
   141  140  149 1   
   142  141  142 1   
   143  141  144 1   
   144  141  150 1   
   145  142  143 2   
   146  142  162 1   
   147  144  145 1   
   148  144  151 1   
   149  144  152 1   
   150  145  146 1   
   151  145  153 1   
   152  145  154 1   
   153  146  147 1   
   154  146  155 1   
   155  146  156 1   
   156  147  148 1   
   157  147  157 1   
   158  147  158 1   
   159  148  159 1   
   160  148  160 1   
   161  148  161 1   
   162  162  163 1   
   163  162  171 1   
   164  163  164 1   
   165  163  166 1   
   166  163  172 1   
   167  164  165 2   
   168  164  177 1   
   169  166  167 1   
   170  166  173 1   
   171  166  174 1   
   172  167  168 1   
   173  167  175 1   
   174  167  176 1   
   175  168  169 1   
   176  168  170 1   
   177  177  178 1   
   178  177  182 1   
   179  178  179 1   
   180  178  180 1   
   181  178  181 1   
   182  184  185 1   
   183  184  186 1   
   184  187  188 1   
   185  187  189 1   
   186  190  191 1   
   187  190  192 1   
   188  193  194 1   
   189  193  195 1   
@<TRIPOS>SUBSTRUCTURE
     1 MOL         1 TEMP              0 ****  ****    0 ROOT
