@<TRIPOS>MOLECULE
MOL
  195   189     1     0     0
SMALL
resp


@<TRIPOS>ATOM
      1 C1         -3.8580   -4.0640    2.9580 c3        1 MOL     -0.759767
      2 C2         -2.9220   -3.8490    1.7250 c         1 MOL      0.829430
      3 O1         -2.4830   -2.7390    1.6150 o         1 MOL     -0.437224
      4 H1         -4.7970   -3.5350    2.7980 hc        1 MOL      0.178443
      5 H2         -4.0580   -5.1290    3.0820 hc        1 MOL      0.178443
      6 H3         -3.3730   -3.6790    3.8560 hc        1 MOL      0.178443
      7 N1         -2.5810   -4.8550    0.9020 n         1 MOL     -0.941579
      8 C3         -1.5050   -4.8780   -0.1640 c3        1 MOL      0.044739
      9 C4         -0.0180   -4.5190    0.1600 c         1 MOL      0.625554
     10 O2          0.8790   -4.3570   -0.6960 o         1 MOL     -0.563925
     11 C5         -2.0680   -4.1960   -1.4030 c3        1 MOL     -0.189858
     12 C6         -3.4420   -4.7450   -1.9240 c         1 MOL      0.743863
     13 O3         -4.4600   -4.0070   -1.9390 o         1 MOL     -0.688879
     14 O4         -3.5740   -5.8820   -2.2730 o         1 MOL     -0.688879
     15 H4         -2.9780   -5.7670    1.0840 hn        1 MOL      0.413251
     16 H5         -1.4600   -5.9400   -0.3820 h1        1 MOL      0.124665
     17 H6         -1.2820   -4.1690   -2.1550 hc        1 MOL      0.062294
     18 H7         -2.2750   -3.1800   -1.0720 hc        1 MOL      0.062294
     19 N2          0.3660   -4.4070    1.4320 n         1 MOL     -0.540980
     20 C7          1.7150   -3.9400    1.8540 c3        1 MOL     -0.323026
     21 C8          2.7150   -5.0700    2.0160 c         1 MOL      0.773920
     22 O5          2.3040   -6.1950    2.2840 o         1 MOL     -0.618892
     23 C9          1.5750   -3.1460    3.1910 c3        1 MOL     -0.010795
     24 C10         1.0980   -3.9470    4.4300 c3        1 MOL      0.445557
     25 C11         0.6560   -1.8820    3.0870 c3        1 MOL     -0.251739
     26 C12         0.8920   -3.1610    5.6940 c3        1 MOL     -0.435600
     27 H8         -0.3990   -4.5150    2.0650 hn        1 MOL      0.424471
     28 H9          2.1100   -3.2340    1.1140 h1        1 MOL      0.220212
     29 H10         2.5600   -2.7150    3.3770 hc        1 MOL      0.073137
     30 H11         1.7420   -4.7810    4.7150 hc        1 MOL     -0.082319
     31 H12         0.1220   -4.3890    4.2060 hc        1 MOL     -0.082319
     32 H13        -0.3390   -2.2100    2.7760 hc        1 MOL      0.063148
     33 H14         0.7630   -1.0920    3.8400 hc        1 MOL      0.063148
     34 H15         0.9610   -1.3880    2.1680 hc        1 MOL      0.063148
     35 H16         1.8770   -2.7370    5.8870 hc        1 MOL      0.095422
     36 H17         0.3930   -2.2230    5.4490 hc        1 MOL      0.095422
     37 H18         0.3550   -3.7290    6.4600 hc        1 MOL      0.095422
     38 N3          4.0330   -4.8420    2.0140 n         1 MOL     -0.578715
     39 C13         4.7530   -3.5910    1.8910 c3        1 MOL      0.142749
     40 C14         4.7560   -2.9850    0.4830 c         1 MOL      0.337414
     41 O6          4.9380   -1.7480    0.3170 o         1 MOL     -0.473357
     42 C15         6.1720   -3.7270    2.4360 c3        1 MOL     -0.138358
     43 C16         6.3750   -4.5550    3.7720 c         1 MOL      0.707247
     44 O7          5.3910   -4.6980    4.5050 o         1 MOL     -0.706016
     45 O8          7.5290   -4.9980    4.0570 o         1 MOL     -0.706016
     46 H19         4.5950   -5.6570    2.2060 hn        1 MOL      0.321681
     47 H20         4.2830   -2.8920    2.5880 h1        1 MOL      0.032925
     48 H21         6.5790   -2.7180    2.5190 hc        1 MOL      0.008066
     49 H22         6.7580   -4.1890    1.6510 hc        1 MOL      0.008066
     50 N4          4.5160   -3.8600   -0.5710 n         1 MOL     -0.184312
     51 C17         4.4950   -3.3990   -1.9720 c3        1 MOL     -0.310121
     52 C18         5.8660   -3.0800   -2.4690 c         1 MOL      0.515488
     53 O9          6.8080   -3.8590   -2.6470 o         1 MOL     -0.586996
     54 H23         4.1880   -4.7940   -0.3850 hn        1 MOL      0.240738
     55 H24         3.9060   -2.4810   -2.1080 h1        1 MOL      0.139189
     56 H25         4.1290   -4.2250   -2.5750 h1        1 MOL      0.139189
     57 N5          5.9650   -1.8340   -2.8090 n         1 MOL     -0.391372
     58 C19         7.2360   -1.1840   -3.2930 c3        1 MOL      0.191471
     59 C20         8.0330   -0.6450   -2.1120 c         1 MOL      0.362912
     60 O10         9.1590   -0.2270   -2.2840 o         1 MOL     -0.526489
     61 C21         6.8990   -0.0380   -4.2810 c3        1 MOL     -0.420273
     62 C22         5.7790    0.9150   -3.8320 c         1 MOL      0.768633
     63 O11         5.3880    0.8360   -2.7020 o         1 MOL     -0.724195
     64 O12         5.5410    1.9460   -4.5080 o         1 MOL     -0.724195
     65 H26         5.2040   -1.1760   -2.7350 hn        1 MOL      0.275582
     66 H27         7.9010   -1.8830   -3.8040 h1        1 MOL      0.074260
     67 H28         6.6150   -0.5210   -5.2110 hc        1 MOL      0.089579
     68 H29         7.7820    0.5330   -4.5660 hc        1 MOL      0.089579
     69 N6          7.4270   -0.6530   -0.8480 n         1 MOL     -0.190610
     70 C23         7.8730    0.0610    0.3360 c3        1 MOL     -0.221041
     71 C24         7.4940    1.5310    0.4510 c         1 MOL      0.502377
     72 O13         7.9930    2.1610    1.3900 o         1 MOL     -0.565148
     73 H30         6.4870   -0.9880   -0.7770 hn        1 MOL      0.215415
     74 H31         8.9510   -0.0300    0.4610 h1        1 MOL      0.121824
     75 H32         7.4300   -0.4300    1.2080 h1        1 MOL      0.121824
     76 N7          6.9280    2.1760   -0.5580 n         1 MOL     -0.195421
     77 C25         6.5090    3.5610   -0.5890 c3        1 MOL      0.094479
     78 C26         5.6580    4.0040    0.6420 c         1 MOL      0.236628
     79 O14         5.7090    5.1600    1.1100 o         1 MOL     -0.473582
     80 C27         7.6990    4.4550   -0.8190 c3        1 MOL     -0.035706
     81 C28         8.1650    4.2630   -2.2470 c3        1 MOL     -0.322037
     82 C29         9.3430    5.1330   -2.7270 c         1 MOL      0.741573
     83 N8          9.4440    5.2190   -4.0240 n         1 MOL     -0.851312
     84 O15        10.1340    5.6720   -2.0000 o         1 MOL     -0.586028
     85 H33         6.5960    1.6170   -1.3310 hn        1 MOL      0.242709
     86 H34         5.8310    3.6050   -1.4320 h1        1 MOL      0.063830
     87 H35         8.5040    4.1660   -0.1270 hc        1 MOL      0.045292
     88 H36         7.4900    5.5010   -0.6000 hc        1 MOL      0.045292
     89 H37         7.3050    4.4130   -2.9000 hc        1 MOL      0.112479
     90 H38         8.4740    3.2370   -2.4440 hc        1 MOL      0.112479
     91 H39         8.7000    4.7560   -4.5140 hn        1 MOL      0.364385
     92 H40        10.2160    5.6420   -4.5150 hn        1 MOL      0.364385
     93 N9          5.0440    3.0190    1.3970 n         1 MOL      0.119368
     94 C30         4.1590    3.2120    2.5180 c3        1 MOL     -0.363741
     95 C31         2.6940    3.2380    2.0840 c         1 MOL      0.806921
     96 O16         1.8770    3.8560    2.7730 o         1 MOL     -0.584336
     97 C32         4.3920    2.1500    3.6000 c3        1 MOL      0.358875
     98 C33         4.2740    0.6430    3.2140 c3        1 MOL     -0.296905
     99 C34         5.7580    2.3700    4.2040 c3        1 MOL     -0.296905
    100 H41         5.0210    2.1420    0.8970 hn        1 MOL      0.038017
    101 H42         4.3500    4.1830    2.9670 h1        1 MOL      0.116710
    102 H43         3.6110    2.1980    4.3560 hc        1 MOL     -0.043542
    103 H44         5.0060    0.3690    2.4540 hc        1 MOL      0.066348
    104 H45         4.4200    0.0320    4.1040 hc        1 MOL      0.066348
    105 H46         3.3400    0.4140    2.7120 hc        1 MOL      0.066348
    106 H47         5.8070    3.4440    4.3510 hc        1 MOL      0.066348
    107 H48         5.8250    1.8470    5.1540 hc        1 MOL      0.066348
    108 H49         6.4460    2.0440    3.4140 hc        1 MOL      0.066348
    109 N10         2.2840    2.4690    1.0780 n         1 MOL     -0.851472
    110 C35         0.8600    2.1040    0.9850 c3        1 MOL      0.377540
    111 C36         0.0390    3.2890    0.3260 c         1 MOL      0.481773
    112 O17         0.6060    4.2890   -0.0820 o         1 MOL     -0.481759
    113 C37         0.7260    0.7770    0.1520 c3        1 MOL     -0.095718
    114 C38        -0.5330   -0.0100    0.5740 c         1 MOL      0.517183
    115 N11        -0.8370   -1.1800    0.0520 n         1 MOL     -0.560806
    116 O18        -1.3930    0.4550    1.3890 o         1 MOL     -0.574359
    117 H50         2.9270    1.7730    0.7360 hn        1 MOL      0.371523
    118 H51         0.5250    1.9730    2.0170 h1        1 MOL      0.005040
    119 H52         1.5360    0.0770    0.3550 hc        1 MOL      0.032975
    120 H53         0.7110    0.9270   -0.9310 hc        1 MOL      0.032975
    121 H54        -0.2460   -1.5190   -0.6960 hn        1 MOL      0.296017
    122 H55        -1.5440   -1.7110    0.5330 hn        1 MOL      0.296017
    123 N12        -1.3200    3.1650    0.2410 n         1 MOL     -0.475316
    124 C39        -2.2250    4.1770   -0.4050 c3        1 MOL      0.091012
    125 C40        -3.6130    3.8110    0.1710 c         1 MOL      0.503625
    126 O19        -3.9100    2.6820    0.4950 o         1 MOL     -0.465689
    127 C41        -2.2520    4.0200   -1.9330 c3        1 MOL     -0.209185
    128 C42        -2.2060    2.5590   -2.4320 ca        1 MOL      0.135731
    129 C43        -3.3250    1.7770   -2.5050 ca        1 MOL     -0.221048
    130 C44        -0.9560    2.0210   -2.8460 ca        1 MOL     -0.221048
    131 C45        -3.2800    0.4580   -2.9060 ca        1 MOL     -0.177001
    132 C46        -0.9270    0.7270   -3.3530 ca        1 MOL     -0.177001
    133 C47        -2.0680   -0.0930   -3.3680 ca        1 MOL      0.232338
    134 O20        -1.9860   -1.2190   -4.0250 oh        1 MOL     -0.450885
    135 H56        -1.7570    2.3840    0.7020 hn        1 MOL      0.245053
    136 H57        -1.9910    5.2170   -0.2060 h1        1 MOL      0.083561
    137 H58        -1.3430    4.4710   -2.3470 hc        1 MOL      0.072264
    138 H59        -3.1390    4.5680   -2.2560 hc        1 MOL      0.072264
    139 H60        -4.2600    2.1680   -2.1430 ha        1 MOL      0.168274
    140 H61        -0.0050    2.5030   -2.6430 ha        1 MOL      0.168274
    141 H62        -4.1370   -0.1800   -3.0070 ha        1 MOL      0.121074
    142 H63         0.0670    0.3740   -3.5700 ha        1 MOL      0.121074
    143 H64        -2.8920   -1.5410   -4.0770 ho        1 MOL      0.359398
    144 N13        -4.5500    4.7930    0.1400 n         1 MOL     -0.547319
    145 C48        -5.9150    4.5530    0.4770 c3        1 MOL      0.576125
    146 C49        -6.7800    4.3500   -0.8070 c         1 MOL      0.309030
    147 O21        -6.8600    5.1930   -1.6290 o         1 MOL     -0.543544
    148 C50        -6.4390    5.7300    1.2410 c3        1 MOL     -0.188798
    149 C51        -5.6820    5.8770    2.6500 c3        1 MOL     -0.035213
    150 C52        -6.2570    6.9360    3.5020 c         1 MOL      0.672384
    151 O22        -6.3380    8.0760    3.0430 o         1 MOL     -0.675093
    152 O23        -6.6470    6.7050    4.6660 o         1 MOL     -0.675093
    153 H65        -4.3060    5.7600    0.0300 hn        1 MOL      0.291899
    154 H66        -6.0270    3.7040    1.1480 h1        1 MOL     -0.142051
    155 H67        -7.4760    5.4290    1.3860 hc        1 MOL      0.049367
    156 H68        -6.3490    6.7040    0.7440 hc        1 MOL      0.049367
    157 H69        -4.6090    5.9640    2.4410 hc        1 MOL     -0.017587
    158 H70        -5.8220    4.9250    3.1730 hc        1 MOL     -0.017587
    159 N14        -7.4230    3.2290   -0.9550 n         1 MOL     -0.313866
    160 C53        -7.4230    2.0370   -0.1220 c3        1 MOL     -0.062802
    161 C54        -8.2760    2.1070    1.0950 c         1 MOL      0.401185
    162 O24        -9.3480    2.7210    1.0330 o         1 MOL     -0.520411
    163 C55        -7.8330    0.8580   -0.9520 c3        1 MOL      0.245227
    164 C56        -6.9070    0.7300   -2.1590 c3        1 MOL     -0.322764
    165 C57        -7.2500   -0.5310   -2.9330 c         1 MOL      0.787197
    166 O25        -8.2850   -0.5540   -3.6570 o         1 MOL     -0.727386
    167 O26        -6.5980   -1.5780   -2.7850 o         1 MOL     -0.727386
    168 H71        -8.1560    3.3030   -1.6480 hn        1 MOL      0.301062
    169 H72        -6.4080    1.7960    0.1840 h1        1 MOL      0.060787
    170 H73        -8.9080    0.9330   -1.1210 hc        1 MOL     -0.036047
    171 H74        -7.6710   -0.0440   -0.3600 hc        1 MOL     -0.036047
    172 H75        -5.8790    0.6510   -1.8040 hc        1 MOL      0.047474
    173 H76        -7.2120    1.5600   -2.8030 hc        1 MOL      0.047474
    174 N15        -7.8530    1.4200    2.1530 n         1 MOL     -0.221394
    175 C58        -8.6840    1.0600    3.3040 c3        1 MOL     -0.015010
    176 H77        -9.6510    1.5550    3.2220 h1        1 MOL      0.039925
    177 H78        -8.8290   -0.0200    3.3250 h1        1 MOL      0.039925
    178 H79        -8.1900    1.3790    4.2230 h1        1 MOL      0.039925
    179 H80        -6.9160    1.0570    2.0160 hn        1 MOL      0.250497
    180 Ca1        -6.8380   -3.7220   -1.1490 Ca        1 MOL      1.662937
    181 O27        -7.7340   -4.8030   -3.7400 oh        1 MOL     -0.908908
    182 H81        -7.9870   -4.0790   -4.3250 ho        1 MOL      0.426482
    183 H82        -7.0850   -5.2980   -4.2360 ho        1 MOL      0.426482
    184 O28        -9.2520   -2.6440   -1.8150 oh        1 MOL     -0.908908
    185 H83        -9.1600   -1.9200   -2.4300 ho        1 MOL      0.426482
    186 H84       -10.1200   -3.0170   -1.9960 ho        1 MOL      0.426482
    187 O29        -5.2470   -1.6070   -0.1980 oh        1 MOL     -0.908908
    188 H85        -4.4210   -1.3130   -0.5950 ho        1 MOL      0.426482
    189 H86        -5.3560   -1.0550    0.5690 ho        1 MOL      0.426482
    190 O30        -7.6410   -2.4550    1.1830 oh        1 MOL     -0.908908
    191 H87        -8.5690   -2.4660    1.4200 ho        1 MOL      0.426482
    192 H88        -7.2060   -2.8700    1.9330 ho        1 MOL      0.426482
    193 O31        -6.0240   -6.4860   -1.8610 oh        1 MOL     -0.908908
    194 H89        -5.9190   -7.4350   -1.9590 ho        1 MOL      0.426482
    195 H90        -5.1360   -6.1370   -1.9680 ho        1 MOL      0.426482
@<TRIPOS>BOND
     1    1    2 1   
     2    1    4 1   
     3    1    5 1   
     4    1    6 1   
     5    2    3 2   
     6    2    7 1   
     7    7    8 1   
     8    7   15 1   
     9    8    9 1   
    10    8   11 1   
    11    8   16 1   
    12    9   10 2   
    13    9   19 1   
    14   11   12 1   
    15   11   17 1   
    16   11   18 1   
    17   12   13 1   
    18   12   14 1   
    19   19   20 1   
    20   19   27 1   
    21   20   21 1   
    22   20   23 1   
    23   20   28 1   
    24   21   22 2   
    25   21   38 1   
    26   23   24 1   
    27   23   25 1   
    28   23   29 1   
    29   24   26 1   
    30   24   30 1   
    31   24   31 1   
    32   25   32 1   
    33   25   33 1   
    34   25   34 1   
    35   26   35 1   
    36   26   36 1   
    37   26   37 1   
    38   38   39 1   
    39   38   46 1   
    40   39   40 1   
    41   39   42 1   
    42   39   47 1   
    43   40   41 2   
    44   40   50 1   
    45   42   43 1   
    46   42   48 1   
    47   42   49 1   
    48   43   44 1   
    49   43   45 1   
    50   50   51 1   
    51   50   54 1   
    52   51   52 1   
    53   51   55 1   
    54   51   56 1   
    55   52   53 2   
    56   52   57 1   
    57   57   58 1   
    58   57   65 1   
    59   58   59 1   
    60   58   61 1   
    61   58   66 1   
    62   59   60 2   
    63   59   69 1   
    64   61   62 1   
    65   61   67 1   
    66   61   68 1   
    67   62   63 1   
    68   62   64 1   
    69   69   70 1   
    70   69   73 1   
    71   70   71 1   
    72   70   74 1   
    73   70   75 1   
    74   71   72 2   
    75   71   76 1   
    76   76   77 1   
    77   76   85 1   
    78   77   78 1   
    79   77   80 1   
    80   77   86 1   
    81   78   79 2   
    82   78   93 1   
    83   80   81 1   
    84   80   87 1   
    85   80   88 1   
    86   81   82 1   
    87   81   89 1   
    88   81   90 1   
    89   82   83 1   
    90   82   84 2   
    91   83   91 1   
    92   83   92 1   
    93   93   94 1   
    94   93  100 1   
    95   94   95 1   
    96   94   97 1   
    97   94  101 1   
    98   95   96 2   
    99   95  109 1   
   100   97   98 1   
   101   97   99 1   
   102   97  102 1   
   103   98  103 1   
   104   98  104 1   
   105   98  105 1   
   106   99  106 1   
   107   99  107 1   
   108   99  108 1   
   109  109  110 1   
   110  109  117 1   
   111  110  111 1   
   112  110  113 1   
   113  110  118 1   
   114  111  112 2   
   115  111  123 1   
   116  113  114 1   
   117  113  119 1   
   118  113  120 1   
   119  114  115 1   
   120  114  116 2   
   121  115  121 1   
   122  115  122 1   
   123  123  124 1   
   124  123  135 1   
   125  124  125 1   
   126  124  127 1   
   127  124  136 1   
   128  125  126 2   
   129  125  144 1   
   130  127  128 1   
   131  127  137 1   
   132  127  138 1   
   133  128  129 ar  
   134  128  130 ar  
   135  129  131 ar  
   136  129  139 1   
   137  130  132 ar  
   138  130  140 1   
   139  131  133 ar  
   140  131  141 1   
   141  132  133 ar  
   142  132  142 1   
   143  133  134 1   
   144  134  143 1   
   145  144  145 1   
   146  144  153 1   
   147  145  146 1   
   148  145  148 1   
   149  145  154 1   
   150  146  147 2   
   151  146  159 1   
   152  148  149 1   
   153  148  155 1   
   154  148  156 1   
   155  149  150 1   
   156  149  157 1   
   157  149  158 1   
   158  150  151 1   
   159  150  152 1   
   160  159  160 1   
   161  159  168 1   
   162  160  161 1   
   163  160  163 1   
   164  160  169 1   
   165  161  162 2   
   166  161  174 1   
   167  163  164 1   
   168  163  170 1   
   169  163  171 1   
   170  164  165 1   
   171  164  172 1   
   172  164  173 1   
   173  165  166 1   
   174  165  167 1   
   175  174  175 1   
   176  174  179 1   
   177  175  176 1   
   178  175  177 1   
   179  175  178 1   
   180  181  182 1   
   181  181  183 1   
   182  184  185 1   
   183  184  186 1   
   184  187  188 1   
   185  187  189 1   
   186  190  191 1   
   187  190  192 1   
   188  193  194 1   
   189  193  195 1   
@<TRIPOS>SUBSTRUCTURE
     1 MOL         1 TEMP              0 ****  ****    0 ROOT
