@<TRIPOS>MOLECULE
MOL
  175   173     1     0     0
SMALL
resp


@<TRIPOS>ATOM
      1 C1          0.8530    6.8400   -1.7990 c3        1 MOL     -0.434671
      2 C2          2.3450    6.4820   -1.5070 c         1 MOL      0.711420
      3 O1          2.9550    7.0670   -0.6300 o         1 MOL     -0.596881
      4 H1          0.2050    6.0920   -1.3430 hc        1 MOL      0.108751
      5 H2          0.6260    7.8210   -1.3810 hc        1 MOL      0.108751
      6 H3          0.6860    6.8550   -2.8760 hc        1 MOL      0.108751
      7 N1          3.0210    5.6160   -2.2290 n         1 MOL     -0.533259
      8 C3          4.2990    5.0260   -1.8140 c3        1 MOL      0.061762
      9 C4          4.0980    4.1130   -0.5640 c         1 MOL      0.627980
     10 O2          3.3150    3.1730   -0.5730 o         1 MOL     -0.591820
     11 C5          4.9640    4.2940   -2.9720 c3        1 MOL     -0.211403
     12 C6          6.4040    3.8800   -2.5420 c         1 MOL      0.702604
     13 O3          6.6360    2.6500   -2.4870 o         1 MOL     -0.723560
     14 O4          7.2290    4.7640   -2.2250 o         1 MOL     -0.723560
     15 H4          2.4950    5.2090   -2.9940 hn        1 MOL      0.276700
     16 H5          4.8440    5.9450   -1.5650 h1        1 MOL      0.087165
     17 H6          5.0330    4.8950   -3.8780 hc        1 MOL      0.036216
     18 H7          4.4430    3.3980   -3.3200 hc        1 MOL      0.036216
     19 N2          5.0250    4.2880    0.3990 n         1 MOL     -0.623507
     20 C7          5.2710    3.3150    1.4320 c3        1 MOL      0.456942
     21 C8          4.0760    3.2750    2.3810 c         1 MOL      0.482025
     22 O5          3.2930    4.1850    2.5070 o         1 MOL     -0.556321
     23 C9          6.5100    3.7210    2.2170 c3        1 MOL     -0.369057
     24 H8          5.7320    4.9830    0.2170 hn        1 MOL      0.324173
     25 H9          5.5020    2.4170    0.8700 h1        1 MOL      0.105211
     26 H10         7.3940    3.7180    1.5830 hc        1 MOL      0.084793
     27 H11         6.2370    4.6630    2.6980 hc        1 MOL      0.084793
     28 H12         6.6160    3.0130    3.0410 hc        1 MOL      0.084793
     29 N3          3.8730    2.2360    3.1880 n         1 MOL     -0.430959
     30 C10         4.7470    1.0540    3.4660 c3        1 MOL      0.086546
     31 C11         4.6780    0.0910    2.2720 c         1 MOL      0.056672
     32 O6          3.8220    0.1460    1.4020 o         1 MOL     -0.343218
     33 C12         4.2960    0.3580    4.7480 c3        1 MOL     -0.170771
     34 C13         2.8990   -0.3170    4.6180 c         1 MOL      0.653696
     35 O7          2.5280   -1.1310    5.5210 o         1 MOL     -0.658125
     36 O8          2.1380   -0.1060    3.6390 o         1 MOL     -0.658125
     37 H13         2.9450    2.2760    3.6050 hn        1 MOL      0.281520
     38 H14         5.7750    1.3170    3.6940 h1        1 MOL      0.071697
     39 H15         4.2930    1.1600    5.4810 hc        1 MOL      0.042850
     40 H16         5.0760   -0.3180    5.1070 hc        1 MOL      0.042850
     41 N4          5.6350   -0.8540    2.3120 n         1 MOL     -0.313309
     42 C14         5.8520   -1.7780    1.1910 c3        1 MOL     -0.003782
     43 C15         6.7500   -1.1610    0.0830 c         1 MOL      0.444299
     44 O9          7.1740    0.0260    0.1810 o         1 MOL     -0.505763
     45 H17         6.3380   -0.7840    3.0260 hn        1 MOL      0.296931
     46 H18         4.8840   -2.1340    0.8400 h1        1 MOL      0.075986
     47 H19         6.3850   -2.6380    1.5950 h1        1 MOL      0.075986
     48 N5          7.1400   -1.9220   -0.9080 n         1 MOL     -0.312715
     49 C16         6.8640   -3.2880   -1.1920 c3        1 MOL     -0.040177
     50 C17         5.6910   -3.4020   -2.1200 c         1 MOL      0.575277
     51 O10         5.1870   -4.5110   -2.2830 o         1 MOL     -0.538094
     52 C18         8.1580   -3.9790   -1.7520 c3        1 MOL     -0.295208
     53 C19         9.3300   -3.8870   -0.8790 c         1 MOL      0.686272
     54 N6         10.4020   -3.3410   -1.3470 n         1 MOL     -0.786333
     55 O11         9.3560   -4.2370    0.3220 o         1 MOL     -0.568686
     56 H20         7.8510   -1.5300   -1.5080 hn        1 MOL      0.269002
     57 H21         6.5950   -3.8620   -0.3120 h1        1 MOL      0.107543
     58 H22         8.5030   -3.4110   -2.6210 hc        1 MOL      0.090313
     59 H23         8.0400   -5.0100   -2.0770 hc        1 MOL      0.090313
     60 H24        10.4030   -3.0040   -2.2960 hn        1 MOL      0.374180
     61 H25        11.1910   -3.1840   -0.7320 hn        1 MOL      0.374180
     62 N7          5.1730   -2.3680   -2.7950 n         1 MOL     -0.398470
     63 C20         3.9900   -2.4210   -3.6830 c3        1 MOL     -0.175453
     64 C21         2.7170   -2.8540   -3.0210 c         1 MOL      0.411806
     65 O12         1.7500   -3.3050   -3.6750 o         1 MOL     -0.540277
     66 H26         5.5740   -1.4450   -2.6950 hn        1 MOL      0.277329
     67 H27         4.2820   -3.2040   -4.3750 h1        1 MOL      0.135929
     68 H28         3.9420   -1.5250   -4.2900 h1        1 MOL      0.135929
     69 N8          2.6770   -2.8690   -1.6780 n         1 MOL      0.035127
     70 C22         1.6100   -3.5640   -0.9710 c3        1 MOL     -0.073888
     71 C23         0.3070   -2.8260   -1.0690 c         1 MOL      0.563206
     72 O13         0.3710   -1.5990   -0.9270 o         1 MOL     -0.628973
     73 C24         2.0740   -3.7590    0.5090 c3        1 MOL      0.061681
     74 C25         3.1550   -4.8490    0.6710 c3        1 MOL     -0.111981
     75 O14         2.4210   -2.5620    1.1120 oh        1 MOL     -0.522222
     76 H29         3.3830   -2.3700   -1.1530 hn        1 MOL      0.096628
     77 H30         1.4450   -4.5500   -1.4100 h1        1 MOL      0.067879
     78 H31         1.2100   -4.1620    1.0320 h1        1 MOL      0.092941
     79 H32         2.4870   -2.8300    2.0310 ho        1 MOL      0.396902
     80 H33         3.4720   -4.9500    1.7130 hc        1 MOL      0.039015
     81 H34         2.8640   -5.8510    0.3440 hc        1 MOL      0.039015
     82 H35         4.0360   -4.5320    0.1170 hc        1 MOL      0.039015
     83 N9         -0.8000   -3.5230   -1.2460 n         1 MOL     -0.373507
     84 C26        -2.1740   -3.0430   -1.1270 c3        1 MOL     -0.116028
     85 C27        -2.6380   -3.3710    0.3040 c         1 MOL      0.247858
     86 O15        -2.5430   -4.5360    0.7900 o         1 MOL     -0.527463
     87 C28        -3.1230   -3.5870   -2.2180 c3        1 MOL      0.297216
     88 C29        -4.5430   -3.0800   -1.9760 c3        1 MOL      0.171952
     89 C30        -2.5310   -3.2380   -3.5680 c3        1 MOL     -0.193358
     90 C31        -5.6070   -3.4790   -2.9310 c3        1 MOL     -0.165431
     91 H36        -0.7120   -4.4750   -1.5590 hn        1 MOL      0.280149
     92 H37        -2.1030   -1.9560   -1.1890 h1        1 MOL      0.202917
     93 H38        -3.1490   -4.6750   -2.1110 hc        1 MOL     -0.049223
     94 H39        -4.4690   -2.0040   -2.0870 hc        1 MOL     -0.056285
     95 H40        -4.7910   -3.3540   -0.9470 hc        1 MOL     -0.056285
     96 H41        -3.2040   -3.6360   -4.3220 hc        1 MOL      0.028388
     97 H42        -2.5810   -2.1510   -3.6230 hc        1 MOL      0.028388
     98 H43        -1.5250   -3.6540   -3.6550 hc        1 MOL      0.028388
     99 H44        -6.5600   -3.0220   -2.6550 hc        1 MOL      0.016341
    100 H45        -5.3680   -3.1350   -3.9370 hc        1 MOL      0.016341
    101 H46        -5.7140   -4.5620   -2.9120 hc        1 MOL      0.016341
    102 N10        -3.1000   -2.3260    0.9870 n         1 MOL      0.052841
    103 C32        -3.5850   -2.3600    2.3620 c3        1 MOL      0.180568
    104 C33        -5.0360   -1.8960    2.4150 c         1 MOL      0.364569
    105 O16        -5.7660   -2.5090    3.1280 o         1 MOL     -0.527870
    106 C34        -2.7600   -1.3980    3.2660 c3        1 MOL     -0.020050
    107 C35        -1.3350   -1.9200    3.2840 c         1 MOL      0.436962
    108 O17        -0.9230   -2.4580    4.3250 o         1 MOL     -0.615958
    109 O18        -0.5300   -1.9490    2.3000 o         1 MOL     -0.615958
    110 H47        -2.9620   -1.4110    0.5960 hn        1 MOL     -0.042800
    111 H48        -3.5380   -3.3820    2.7280 h1        1 MOL      0.052526
    112 H49        -3.2060   -1.2470    4.2430 hc        1 MOL      0.027375
    113 H50        -2.7140   -0.4460    2.7340 hc        1 MOL      0.027375
    114 N11        -5.4430   -0.8060    1.6820 n         1 MOL     -0.536937
    115 C36        -6.8100   -0.4560    1.3790 c3        1 MOL      0.747725
    116 C37        -6.7850    1.0300    0.8430 c         1 MOL      0.087495
    117 O19        -7.2890    1.2680   -0.2150 o         1 MOL     -0.409786
    118 C38        -7.4010   -1.4680    0.3800 c3        1 MOL     -0.718805
    119 C39        -8.9100   -1.4400    0.1810 ca        1 MOL      0.222431
    120 C40        -9.4460   -2.4380   -0.6430 ca        1 MOL     -0.144432
    121 C41        -9.7920   -0.4970    0.7670 ca        1 MOL     -0.144432
    122 C42       -10.8620   -2.4730   -0.8700 ca        1 MOL     -0.175898
    123 C43       -11.1420   -0.4800    0.4450 ca        1 MOL     -0.175898
    124 C44       -11.6670   -1.4480   -0.4300 ca        1 MOL     -0.071645
    125 H51        -4.7130   -0.3960    1.1140 hn        1 MOL      0.088394
    126 H52        -7.4230   -0.3720    2.2840 h1        1 MOL     -0.064386
    127 H53        -7.0760   -2.4830    0.6010 hc        1 MOL      0.234731
    128 H54        -6.9030   -1.1420   -0.5380 hc        1 MOL      0.234731
    129 H55        -8.7380   -3.1200   -1.1160 ha        1 MOL      0.115158
    130 H56        -9.4830    0.1530    1.5680 ha        1 MOL      0.115158
    131 H57       -11.3320   -3.2700   -1.4240 ha        1 MOL      0.115025
    132 H58       -11.6950    0.3760    0.8080 ha        1 MOL      0.115025
    133 H59       -12.7030   -1.4370   -0.7340 ha        1 MOL      0.083292
    134 N12        -6.0450    2.0080    1.5070 n         1 MOL     -0.048663
    135 C45        -5.9570    3.3700    0.9900 c3        1 MOL      0.106431
    136 C46        -5.4640    3.5330   -0.4440 c         1 MOL      0.105086
    137 O20        -5.6870    4.5540   -1.1060 o         1 MOL     -0.483932
    138 C47        -4.9410    4.0580    1.8750 c3        1 MOL      0.033690
    139 C48        -5.0770    3.4240    3.2090 c3        1 MOL     -0.143517
    140 C49        -5.4430    2.0070    2.8190 c3        1 MOL     -0.103341
    141 H60        -6.9200    3.8850    1.0600 h1        1 MOL      0.052019
    142 H61        -3.9780    3.8200    1.4280 hc        1 MOL      0.019174
    143 H62        -5.1710    5.1240    1.9390 hc        1 MOL      0.019174
    144 H63        -4.1300    3.4050    3.7410 hc        1 MOL      0.055663
    145 H64        -5.9090    3.8740    3.7420 hc        1 MOL      0.055663
    146 H65        -4.5050    1.4400    2.7560 h1        1 MOL      0.082422
    147 H66        -6.0450    1.5380    3.6070 h1        1 MOL      0.082422
    148 N13        -4.7420    2.5360   -0.9500 n         1 MOL      0.102911
    149 C50        -4.1540    2.5880   -2.3360 c3        1 MOL     -0.207388
    150 C51        -5.3070    2.3210   -3.3520 c         1 MOL      0.458393
    151 O21        -5.4310    3.0470   -4.3800 o         1 MOL     -0.546704
    152 C52        -3.0750    1.4760   -2.4310 c3        1 MOL     -0.070675
    153 C53        -2.0490    1.6460   -1.3120 c3        1 MOL     -0.189656
    154 C54        -2.2890    0.7580   -0.0280 c         1 MOL      0.578287
    155 O22        -1.2810    0.5720    0.7130 o         1 MOL     -0.581894
    156 O23        -3.4140    0.4720    0.3990 o         1 MOL     -0.581894
    157 H67        -4.5820    1.7160   -0.3920 hn        1 MOL      0.275788
    158 H68        -3.7440    3.5840   -2.5560 h1        1 MOL      0.138357
    159 H69        -2.4400    1.6390   -3.3030 hc        1 MOL      0.038523
    160 H70        -3.4170    0.4360   -2.4540 hc        1 MOL      0.038523
    161 H71        -1.9950    2.6530   -0.9000 hc        1 MOL      0.076982
    162 H72        -1.0770    1.4020   -1.7380 hc        1 MOL      0.076982
    163 N14        -6.2540    1.3270   -3.1580 n         1 MOL     -0.168431
    164 C55        -7.4970    1.1050   -3.8300 c3        1 MOL     -0.201634
    165 H73        -8.2850    0.9520   -3.0930 h1        1 MOL      0.089174
    166 H74        -7.7370    1.9720   -4.4450 h1        1 MOL      0.089174
    167 H75        -7.4160    0.2210   -4.4620 h1        1 MOL      0.089174
    168 H76        -6.0510    0.7760   -2.3420 hn        1 MOL      0.151071
    169 Ca1         1.1000   -0.2680    1.2280 Ca        1 MOL      1.652749
    170 O24         2.2050    0.8030   -0.9220 oh        1 MOL     -0.930100
    171 H77         2.2830    1.7410   -1.0680 ho        1 MOL      0.437470
    172 H78         2.8070    0.4130   -1.5540 ho        1 MOL      0.437470
    173 O25         1.4550    2.3730    1.1410 oh        1 MOL     -0.930100
    174 H79         0.9840    3.1110    1.5260 ho        1 MOL      0.437470
    175 H80         2.2470    2.7630    0.7770 ho        1 MOL      0.437470
@<TRIPOS>BOND
     1    1    2 1   
     2    1    4 1   
     3    1    5 1   
     4    1    6 1   
     5    2    3 2   
     6    2    7 1   
     7    7    8 1   
     8    7   15 1   
     9    8    9 1   
    10    8   11 1   
    11    8   16 1   
    12    9   10 2   
    13    9   19 1   
    14   11   12 1   
    15   11   17 1   
    16   11   18 1   
    17   12   13 1   
    18   12   14 1   
    19   19   20 1   
    20   19   24 1   
    21   20   21 1   
    22   20   23 1   
    23   20   25 1   
    24   21   22 2   
    25   21   29 1   
    26   23   26 1   
    27   23   27 1   
    28   23   28 1   
    29   29   30 1   
    30   29   37 1   
    31   30   31 1   
    32   30   33 1   
    33   30   38 1   
    34   31   32 2   
    35   31   41 1   
    36   33   34 1   
    37   33   39 1   
    38   33   40 1   
    39   34   35 1   
    40   34   36 1   
    41   41   42 1   
    42   41   45 1   
    43   42   43 1   
    44   42   46 1   
    45   42   47 1   
    46   43   44 2   
    47   43   48 1   
    48   48   49 1   
    49   48   56 1   
    50   49   50 1   
    51   49   52 1   
    52   49   57 1   
    53   50   51 2   
    54   50   62 1   
    55   52   53 1   
    56   52   58 1   
    57   52   59 1   
    58   53   54 1   
    59   53   55 2   
    60   54   60 1   
    61   54   61 1   
    62   62   63 1   
    63   62   66 1   
    64   63   64 1   
    65   63   67 1   
    66   63   68 1   
    67   64   65 2   
    68   64   69 1   
    69   69   70 1   
    70   69   76 1   
    71   70   71 1   
    72   70   73 1   
    73   70   77 1   
    74   71   72 2   
    75   71   83 1   
    76   73   74 1   
    77   73   75 1   
    78   73   78 1   
    79   74   80 1   
    80   74   81 1   
    81   74   82 1   
    82   75   79 1   
    83   83   84 1   
    84   83   91 1   
    85   84   85 1   
    86   84   87 1   
    87   84   92 1   
    88   85   86 2   
    89   85  102 1   
    90   87   88 1   
    91   87   89 1   
    92   87   93 1   
    93   88   90 1   
    94   88   94 1   
    95   88   95 1   
    96   89   96 1   
    97   89   97 1   
    98   89   98 1   
    99   90   99 1   
   100   90  100 1   
   101   90  101 1   
   102  102  103 1   
   103  102  110 1   
   104  103  104 1   
   105  103  106 1   
   106  103  111 1   
   107  104  105 2   
   108  104  114 1   
   109  106  107 1   
   110  106  112 1   
   111  106  113 1   
   112  107  108 1   
   113  107  109 1   
   114  114  115 1   
   115  114  125 1   
   116  115  116 1   
   117  115  118 1   
   118  115  126 1   
   119  116  117 2   
   120  116  134 1   
   121  118  119 1   
   122  118  127 1   
   123  118  128 1   
   124  119  120 ar  
   125  119  121 ar  
   126  120  122 ar  
   127  120  129 1   
   128  121  123 ar  
   129  121  130 1   
   130  122  124 ar  
   131  122  131 1   
   132  123  124 ar  
   133  123  132 1   
   134  124  133 1   
   135  134  135 1   
   136  134  140 1   
   137  135  136 1   
   138  135  138 1   
   139  135  141 1   
   140  136  137 2   
   141  136  148 1   
   142  138  139 1   
   143  138  142 1   
   144  138  143 1   
   145  139  140 1   
   146  139  144 1   
   147  139  145 1   
   148  140  146 1   
   149  140  147 1   
   150  148  149 1   
   151  148  157 1   
   152  149  150 1   
   153  149  152 1   
   154  149  158 1   
   155  150  151 2   
   156  150  163 1   
   157  152  153 1   
   158  152  159 1   
   159  152  160 1   
   160  153  154 1   
   161  153  161 1   
   162  153  162 1   
   163  154  155 1   
   164  154  156 1   
   165  163  164 1   
   166  163  168 1   
   167  164  165 1   
   168  164  166 1   
   169  164  167 1   
   170  170  171 1   
   171  170  172 1   
   172  173  174 1   
   173  173  175 1   
@<TRIPOS>SUBSTRUCTURE
     1 MOL         1 TEMP              0 ****  ****    0 ROOT
