@<TRIPOS>MOLECULE
MOL
  192   187     1     0     0
SMALL
resp


@<TRIPOS>ATOM
      1 C1          2.2610    7.7590    2.3560 c3        1 MOL     -0.392089
      2 C2          1.9690    6.6320    1.2750 c         1 MOL      0.582250
      3 O1          1.5430    6.9530    0.1480 o         1 MOL     -0.589812
      4 H1          1.3760    8.3820    2.4780 hc        1 MOL      0.115020
      5 H2          2.5120    7.2930    3.3090 hc        1 MOL      0.115020
      6 H3          3.0960    8.3760    2.0220 hc        1 MOL      0.115020
      7 N1          2.4290    5.4060    1.4830 n         1 MOL     -0.359415
      8 C3          2.5390    4.3910    0.4240 c3        1 MOL      0.068731
      9 C4          1.2530    3.5840    0.2860 c         1 MOL      0.392803
     10 O2          1.0110    3.0260   -0.7670 o         1 MOL     -0.483277
     11 C5          3.6490    3.4220    0.6970 c3        1 MOL     -0.049603
     12 C6          3.8030    2.7430    2.0770 c         1 MOL      0.645283
     13 O3          3.8700    3.4500    3.1440 o         1 MOL     -0.694568
     14 O4          3.6540    1.4970    2.1870 o         1 MOL     -0.694568
     15 H4          2.8010    5.2420    2.4160 hn        1 MOL      0.245407
     16 H5          2.7460    4.8110   -0.5550 h1        1 MOL      0.082736
     17 H6          4.4900    4.1080    0.6810 hc        1 MOL      0.044342
     18 H7          3.6960    2.8210   -0.2220 hc        1 MOL      0.044342
     19 N2          0.3310    3.5740    1.3020 n         1 MOL     -0.423447
     20 C7         -0.8500    2.7260    1.4090 c3        1 MOL      0.211978
     21 C8         -1.9950    3.4140    0.7090 c         1 MOL      0.187120
     22 O5         -2.1420    4.6250    0.8920 o         1 MOL     -0.511619
     23 C9         -1.2210    2.4770    2.8670 c3        1 MOL     -0.157214
     24 C10        -0.1980    1.9920    3.8870 c3        1 MOL     -0.119335
     25 C11         0.5540    0.7490    3.2600 c3        1 MOL      0.038806
     26 C12         1.4020   -0.0840    4.2560 c3        1 MOL      0.080398
     27 N3          2.6510    0.6230    4.6410 n4        1 MOL     -0.310351
     28 H8          0.4460    4.2240    2.0720 hn        1 MOL      0.234995
     29 H9         -0.6420    1.7230    1.0330 h1        1 MOL      0.144821
     30 H10        -2.0360    1.7600    2.8410 hc        1 MOL      0.092205
     31 H11        -1.7660    3.3050    3.3290 hc        1 MOL      0.092205
     32 H12        -0.7920    1.7320    4.7720 hc        1 MOL      0.041732
     33 H13         0.5130    2.7700    4.1680 hc        1 MOL      0.041732
     34 H14         1.1740    0.9700    2.3910 hc        1 MOL      0.029578
     35 H15        -0.2440    0.0920    2.9060 hc        1 MOL      0.029578
     36 H16         1.5630   -1.0830    3.8470 hx        1 MOL      0.035069
     37 H17         0.8160   -0.2810    5.1450 hx        1 MOL      0.035069
     38 H18         2.4890    1.5060    5.0820 hn        1 MOL      0.286902
     39 H19         3.2470    0.0320    5.2110 hn        1 MOL      0.286902
     40 H20         3.1780    0.8340    3.7960 hn        1 MOL      0.286902
     41 N4         -2.8970    2.6810   -0.0040 n         1 MOL     -0.105961
     42 C13        -2.8780    1.2730   -0.4610 c3        1 MOL      0.027422
     43 C14        -2.9290    0.1150    0.5940 c         1 MOL      0.248985
     44 O6         -1.8940   -0.4210    0.9740 o         1 MOL     -0.587203
     45 C15        -1.8830    0.9820   -1.5440 c3        1 MOL     -0.017279
     46 C16        -2.1680    1.7610   -2.8820 c         1 MOL      0.608760
     47 O7         -1.2920    2.5510   -3.2260 o         1 MOL     -0.683228
     48 O8         -3.2710    1.5730   -3.4320 o         1 MOL     -0.683228
     49 H21        -3.6650    3.2660   -0.2920 hn        1 MOL      0.233237
     50 H22        -3.8020    1.1360   -1.0120 h1        1 MOL      0.121872
     51 H23        -1.9130   -0.0830   -1.7640 hc        1 MOL      0.000634
     52 H24        -0.8710    1.2390   -1.2380 hc        1 MOL      0.000634
     53 N5         -4.0450    0.0600    1.4040 n         1 MOL      0.069784
     54 C17        -5.1400    1.0340    1.4750 c3        1 MOL     -0.428821
     55 C18        -6.0930    0.5890    2.5290 c         1 MOL      0.526035
     56 O9         -5.7870   -0.2390    3.3520 o         1 MOL     -0.554110
     57 H25        -3.9910   -0.5450    2.2100 hn        1 MOL      0.169296
     58 H26        -5.6350    0.9210    0.5090 h1        1 MOL      0.126800
     59 H27        -4.7200    1.9910    1.7630 h1        1 MOL      0.126800
     60 N6         -7.3340    1.1000    2.5280 n         1 MOL     -0.208192
     61 C19        -7.7570    2.2140    1.6320 c3        1 MOL     -0.059217
     62 C20        -8.0320    1.6490    0.2300 c         1 MOL      0.577676
     63 O10        -7.7380    2.3470   -0.7380 o         1 MOL     -0.549142
     64 C21        -8.9470    3.0050    2.0910 c3        1 MOL     -0.182115
     65 C22       -10.2120    2.2440    2.4770 c         1 MOL      0.612927
     66 O11       -10.0720    0.9690    2.7630 o         1 MOL     -0.600076
     67 O12       -11.3410    2.7710    2.4120 o         1 MOL     -0.600076
     68 H28        -7.9110    0.7780    3.2920 hn        1 MOL      0.202895
     69 H29        -6.8980    2.8870    1.5120 h1        1 MOL      0.062720
     70 H30        -9.2650    3.7500    1.3590 hc        1 MOL      0.069897
     71 H31        -8.5350    3.5490    2.9430 hc        1 MOL      0.069897
     72 N7         -8.5230    0.3990    0.0680 n         1 MOL     -0.414573
     73 C23        -8.2770   -0.5340   -1.0470 c3        1 MOL      0.033005
     74 C24        -7.1800   -1.5430   -0.8170 c         1 MOL      0.778380
     75 O13        -6.5210   -1.4790    0.2260 o         1 MOL     -0.592003
     76 H32        -8.6840    0.0030    0.9820 hn        1 MOL      0.230474
     77 H33        -8.1180   -0.0260   -2.0010 h1        1 MOL      0.051254
     78 H34        -9.1860   -1.1130   -1.2080 h1        1 MOL      0.051254
     79 N8         -7.0240   -2.4850   -1.7260 n         1 MOL     -0.692944
     80 C25        -6.1470   -3.6550   -1.5020 c3        1 MOL      0.075008
     81 C26        -4.6910   -3.2800   -1.0930 c         1 MOL      0.403815
     82 O14        -4.0530   -2.3410   -1.6050 o         1 MOL     -0.493784
     83 C27        -6.0180   -4.5490   -2.6840 c3        1 MOL      0.470185
     84 C28        -5.6630   -4.0740   -4.0340 c3        1 MOL     -0.314586
     85 O15        -7.3480   -5.1520   -2.8420 oh        1 MOL     -0.660194
     86 H35        -7.6680   -2.5110   -2.5010 hn        1 MOL      0.330816
     87 H36        -6.5760   -4.3760   -0.8090 h1        1 MOL      0.035981
     88 H37        -5.3360   -5.3010   -2.3140 h1        1 MOL     -0.048340
     89 H38        -7.6840   -5.3420   -1.9550 ho        1 MOL      0.372860
     90 H39        -4.6410   -3.6880   -3.9840 hc        1 MOL      0.106168
     91 H40        -5.5920   -4.9190   -4.7230 hc        1 MOL      0.106168
     92 H41        -6.2830   -3.3090   -4.5070 hc        1 MOL      0.106168
     93 N9         -4.1120   -4.0750   -0.2620 n         1 MOL     -0.390771
     94 C29        -2.7680   -3.9340    0.2220 c3        1 MOL     -0.218054
     95 C30        -1.8440   -4.8160   -0.6660 c         1 MOL      0.802354
     96 O16        -2.0810   -5.9780   -0.8510 o         1 MOL     -0.563594
     97 C31        -2.5730   -4.3870    1.7230 c3        1 MOL      0.129640
     98 C32        -3.7690   -3.8170    2.5410 c3        1 MOL      0.113387
     99 C33        -1.2660   -3.6940    2.2100 c3        1 MOL     -0.319498
    100 C34        -3.6160   -4.3110    3.9840 c3        1 MOL     -0.327982
    101 H42        -4.7230   -4.7520    0.1540 hn        1 MOL      0.249681
    102 H43        -2.4770   -2.8800    0.1970 h1        1 MOL      0.173790
    103 H44        -2.5010   -5.4720    1.8250 hc        1 MOL      0.001440
    104 H45        -4.7290   -4.2710    2.3000 hc        1 MOL      0.044944
    105 H46        -3.8190   -2.7370    2.4440 hc        1 MOL      0.044944
    106 H47        -0.8980   -4.1120    3.1430 hc        1 MOL      0.071209
    107 H48        -0.4330   -3.7530    1.5220 hc        1 MOL      0.071209
    108 H49        -1.5770   -2.6650    2.4300 hc        1 MOL      0.071209
    109 H50        -3.2990   -5.3460    4.1080 hc        1 MOL      0.073379
    110 H51        -2.7480   -3.9200    4.5380 hc        1 MOL      0.073379
    111 H52        -4.5790   -4.1570    4.4540 hc        1 MOL      0.073379
    112 N10        -0.7160   -4.1910   -1.1800 n         1 MOL     -0.522466
    113 C35         0.3840   -4.9360   -1.8660 c3        1 MOL     -0.212922
    114 C36         1.7360   -4.9930   -1.1370 c         1 MOL      0.510053
    115 O17         2.5550   -5.9030   -1.3630 o         1 MOL     -0.520605
    116 C37         0.5960   -4.3270   -3.2600 c3        1 MOL      0.307005
    117 C38         1.0300   -2.8640   -3.2380 c3        1 MOL     -0.174841
    118 O18        -0.6800   -4.3600   -3.9200 oh        1 MOL     -0.601657
    119 H53        -0.4590   -3.2800   -0.8230 hn        1 MOL      0.305212
    120 H54        -0.0080   -5.9200   -2.0950 h1        1 MOL      0.140928
    121 H55         1.2440   -4.9180   -3.9000 h1        1 MOL      0.017606
    122 H56        -1.0340   -5.2430   -3.7780 ho        1 MOL      0.389834
    123 H57         2.0540   -2.7730   -2.8710 hc        1 MOL      0.076622
    124 H58         0.9220   -2.5110   -4.2590 hc        1 MOL      0.076622
    125 H59         0.3580   -2.3150   -2.5700 hc        1 MOL      0.076622
    126 N11         2.0740   -4.0920   -0.1650 n         1 MOL     -0.283493
    127 C39         3.2880   -3.8820    0.6340 c3        1 MOL     -0.060738
    128 C40         4.5370   -3.5370   -0.2220 c         1 MOL      0.474431
    129 O19         4.4880   -3.5000   -1.4640 o         1 MOL     -0.460263
    130 C41         3.6110   -5.0280    1.5470 c3        1 MOL      0.406036
    131 C42         2.4320   -5.3930    2.3980 c3        1 MOL     -0.370224
    132 O20         4.6110   -4.7560    2.4670 oh        1 MOL     -0.633552
    133 H60         1.3350   -3.4420    0.0140 hn        1 MOL      0.215310
    134 H61         3.1160   -3.0800    1.3480 h1        1 MOL      0.103608
    135 H62         3.8670   -5.8900    0.9290 h1        1 MOL      0.005999
    136 H63         5.1230   -5.5560    2.5410 ho        1 MOL      0.394189
    137 H64         2.6540   -6.2150    3.0710 hc        1 MOL      0.091308
    138 H65         2.1690   -4.5570    3.0380 hc        1 MOL      0.091308
    139 H66         1.5280   -5.6640    1.8410 hc        1 MOL      0.091308
    140 N12         5.6680   -3.2000    0.3660 n         1 MOL     -0.420900
    141 C43         6.9040   -3.0250   -0.3620 c3        1 MOL      0.004275
    142 C44         7.0880   -1.7490   -1.1430 c         1 MOL      0.438528
    143 O21         8.1490   -1.6270   -1.7380 o         1 MOL     -0.547944
    144 C45         8.1830   -3.2980    0.4790 c3        1 MOL     -0.156651
    145 C46         8.6270   -2.2060    1.4870 c3        1 MOL      0.092893
    146 C47         9.9100   -2.6000    2.2810 c3        1 MOL     -0.071985
    147 C48        10.3840   -1.6180    3.3420 c3        1 MOL      0.131654
    148 N13        11.7950   -1.9050    3.7620 n4        1 MOL     -0.206011
    149 H67         5.7380   -3.2870    1.3710 hn        1 MOL      0.255952
    150 H68         6.8980   -3.8600   -1.0620 h1        1 MOL      0.126030
    151 H69         9.0360   -3.4950   -0.1720 hc        1 MOL      0.063233
    152 H70         8.0040   -4.2440    0.9930 hc        1 MOL      0.063233
    153 H71         7.8520   -2.0210    2.2290 hc        1 MOL      0.013574
    154 H72         8.6810   -1.2530    0.9600 hc        1 MOL      0.013574
    155 H73        10.7530   -2.7610    1.5960 hc        1 MOL      0.031642
    156 H74         9.7490   -3.5360    2.8200 hc        1 MOL      0.031642
    157 H75         9.7560   -1.6290    4.2350 hx        1 MOL      0.043582
    158 H76        10.3930   -0.5830    3.0010 hx        1 MOL      0.043582
    159 H77        12.0400   -2.8230    4.0850 hn        1 MOL      0.225637
    160 H78        12.4370   -1.7440    3.0050 hn        1 MOL      0.225637
    161 H79        12.0260   -1.3200    4.5630 hn        1 MOL      0.225637
    162 N14         6.2070   -0.7430   -1.0630 n         1 MOL     -0.169427
    163 C49         6.2590    0.4120   -1.8920 c3        1 MOL     -0.320389
    164 C50         6.9630    1.5930   -1.1600 c         1 MOL      0.456923
    165 O22         6.4690    2.0760   -0.1850 o         1 MOL     -0.494306
    166 C51         4.8110    0.6910   -2.1310 c3        1 MOL      0.468061
    167 C52         4.7610    1.6800   -3.3470 c3        1 MOL     -0.154979
    168 C53         3.4200    2.4040   -3.2580 c         1 MOL      0.718769
    169 O23         2.3530    1.8540   -3.6820 o         1 MOL     -0.803513
    170 O24         3.3580    3.6190   -2.8530 o         1 MOL     -0.803513
    171 H80         5.4000   -0.8700   -0.4760 hn        1 MOL      0.182900
    172 H81         6.7330    0.2040   -2.8590 h1        1 MOL      0.139864
    173 H82         4.3620    1.1200   -1.2430 hc        1 MOL     -0.076887
    174 H83         4.2670   -0.2360   -2.3040 hc        1 MOL     -0.076887
    175 H84         4.9350    1.0080   -4.1950 hc        1 MOL      0.014270
    176 H85         5.6240    2.3480   -3.4000 hc        1 MOL      0.014270
    177 N15         8.0950    2.0280   -1.6710 n         1 MOL     -0.197819
    178 C54         8.8800    3.1690   -1.2380 c3        1 MOL     -0.109336
    179 H86         9.0110    3.8570   -2.0730 h1        1 MOL      0.069526
    180 H87         8.3620    3.6790   -0.4250 h1        1 MOL      0.069526
    181 H88         9.8550    2.8290   -0.8910 h1        1 MOL      0.069526
    182 H89         8.4220    1.5090   -2.4770 hn        1 MOL      0.215130
    183 Ca1         0.8100    4.0910   -3.3910 Ca        1 MOL      1.684175
    184 O25        -0.8980    5.8970   -4.5820 oh        1 MOL     -0.785779
    185 H90        -0.3460    6.3960   -5.1850 ho        1 MOL      0.395496
    186 H91        -1.7180    5.7650   -5.0670 ho        1 MOL      0.395496
    187 O26         1.8990    6.4010   -2.5310 oh        1 MOL     -0.785779
    188 H92         2.8400    6.2760   -2.4050 ho        1 MOL      0.395496
    189 H93         1.6410    6.9960   -1.8260 ho        1 MOL      0.395496
    190 O27        -0.7080    5.5350   -1.5640 oh        1 MOL     -0.785779
    191 H94        -0.3450    6.3190   -1.1650 ho        1 MOL      0.395496
    192 H95        -1.3400    5.2070   -0.9280 ho        1 MOL      0.395496
@<TRIPOS>BOND
     1    1    2 1   
     2    1    4 1   
     3    1    5 1   
     4    1    6 1   
     5    2    3 2   
     6    2    7 1   
     7    7    8 1   
     8    7   15 1   
     9    8    9 1   
    10    8   11 1   
    11    8   16 1   
    12    9   10 2   
    13    9   19 1   
    14   11   12 1   
    15   11   17 1   
    16   11   18 1   
    17   12   13 1   
    18   12   14 1   
    19   19   20 1   
    20   19   28 1   
    21   20   21 1   
    22   20   23 1   
    23   20   29 1   
    24   21   22 2   
    25   21   41 1   
    26   23   24 1   
    27   23   30 1   
    28   23   31 1   
    29   24   25 1   
    30   24   32 1   
    31   24   33 1   
    32   25   26 1   
    33   25   34 1   
    34   25   35 1   
    35   26   27 1   
    36   26   36 1   
    37   26   37 1   
    38   27   38 1   
    39   27   39 1   
    40   27   40 1   
    41   41   42 1   
    42   41   49 1   
    43   42   43 1   
    44   42   45 1   
    45   42   50 1   
    46   43   44 2   
    47   43   53 1   
    48   45   46 1   
    49   45   51 1   
    50   45   52 1   
    51   46   47 1   
    52   46   48 1   
    53   53   54 1   
    54   53   57 1   
    55   54   55 1   
    56   54   58 1   
    57   54   59 1   
    58   55   56 2   
    59   55   60 1   
    60   60   61 1   
    61   60   68 1   
    62   61   62 1   
    63   61   64 1   
    64   61   69 1   
    65   62   63 2   
    66   62   72 1   
    67   64   65 1   
    68   64   70 1   
    69   64   71 1   
    70   65   66 1   
    71   65   67 1   
    72   72   73 1   
    73   72   76 1   
    74   73   74 1   
    75   73   77 1   
    76   73   78 1   
    77   74   75 2   
    78   74   79 1   
    79   79   80 1   
    80   79   86 1   
    81   80   81 1   
    82   80   83 1   
    83   80   87 1   
    84   81   82 2   
    85   81   93 1   
    86   83   84 1   
    87   83   85 1   
    88   83   88 1   
    89   84   90 1   
    90   84   91 1   
    91   84   92 1   
    92   85   89 1   
    93   93   94 1   
    94   93  101 1   
    95   94   95 1   
    96   94   97 1   
    97   94  102 1   
    98   95   96 2   
    99   95  112 1   
   100   97   98 1   
   101   97   99 1   
   102   97  103 1   
   103   98  100 1   
   104   98  104 1   
   105   98  105 1   
   106   99  106 1   
   107   99  107 1   
   108   99  108 1   
   109  100  109 1   
   110  100  110 1   
   111  100  111 1   
   112  112  113 1   
   113  112  119 1   
   114  113  114 1   
   115  113  116 1   
   116  113  120 1   
   117  114  115 2   
   118  114  126 1   
   119  116  117 1   
   120  116  118 1   
   121  116  121 1   
   122  117  123 1   
   123  117  124 1   
   124  117  125 1   
   125  118  122 1   
   126  126  127 1   
   127  126  133 1   
   128  127  128 1   
   129  127  130 1   
   130  127  134 1   
   131  128  129 2   
   132  128  140 1   
   133  130  131 1   
   134  130  132 1   
   135  130  135 1   
   136  131  137 1   
   137  131  138 1   
   138  131  139 1   
   139  132  136 1   
   140  140  141 1   
   141  140  149 1   
   142  141  142 1   
   143  141  144 1   
   144  141  150 1   
   145  142  143 2   
   146  142  162 1   
   147  144  145 1   
   148  144  151 1   
   149  144  152 1   
   150  145  146 1   
   151  145  153 1   
   152  145  154 1   
   153  146  147 1   
   154  146  155 1   
   155  146  156 1   
   156  147  148 1   
   157  147  157 1   
   158  147  158 1   
   159  148  159 1   
   160  148  160 1   
   161  148  161 1   
   162  162  163 1   
   163  162  171 1   
   164  163  164 1   
   165  163  166 1   
   166  163  172 1   
   167  164  165 2   
   168  164  177 1   
   169  166  167 1   
   170  166  173 1   
   171  166  174 1   
   172  167  168 1   
   173  167  175 1   
   174  167  176 1   
   175  168  169 1   
   176  168  170 1   
   177  177  178 1   
   178  177  182 1   
   179  178  179 1   
   180  178  180 1   
   181  178  181 1   
   182  184  185 1   
   183  184  186 1   
   184  187  188 1   
   185  187  189 1   
   186  190  191 1   
   187  190  192 1   
@<TRIPOS>SUBSTRUCTURE
     1 MOL         1 TEMP              0 ****  ****    0 ROOT
