@<TRIPOS>MOLECULE
MOL
  181   177     1     0     0
SMALL
resp


@<TRIPOS>ATOM
      1 C1          4.7120   -1.9280    3.3350 c3        1 MOL     -0.236022
      2 C2          5.9930   -1.1790    2.8100 c         1 MOL      0.667525
      3 O1          5.9030   -0.5310    1.7350 o         1 MOL     -0.602076
      4 H1          5.0090   -2.7080    4.0350 hc        1 MOL      0.063435
      5 H2          4.0560   -1.2180    3.8390 hc        1 MOL      0.063435
      6 H3          4.1840   -2.3770    2.4930 hc        1 MOL      0.063435
      7 N1          7.1570   -1.4000    3.4310 n         1 MOL     -0.639588
      8 C3          8.4480   -0.9770    2.8750 c3        1 MOL      0.383611
      9 C4          8.6180   -1.0670    1.3170 c         1 MOL      0.559372
     10 O2          8.4160   -2.1990    0.7660 o         1 MOL     -0.547105
     11 C5          9.4900   -1.7820    3.6280 c3        1 MOL     -0.300956
     12 C6         10.8970   -1.2360    3.5590 c         1 MOL      0.734767
     13 O3         11.1740   -0.0610    3.1900 o         1 MOL     -0.731368
     14 O4         11.8150   -2.0120    4.0120 o         1 MOL     -0.731368
     15 H4          7.2390   -1.7340    4.3800 hn        1 MOL      0.329475
     16 H5          8.4210    0.0600    3.2140 h1        1 MOL     -0.037598
     17 H6          9.3710   -2.7610    3.1630 hc        1 MOL      0.040762
     18 H7          9.1220   -1.8410    4.6500 hc        1 MOL      0.040762
     19 N2          9.0970    0.0300    0.6640 n         1 MOL     -0.639511
     20 C7          9.1810    0.2790   -0.7600 c3        1 MOL      0.506276
     21 C8          7.8830    0.2740   -1.5800 c         1 MOL      0.324737
     22 O5          7.8800    0.6910   -2.7380 o         1 MOL     -0.540370
     23 C9         10.0490    1.5330   -1.0370 c3        1 MOL     -0.359255
     24 H8          9.2880    0.8430    1.2270 hn        1 MOL      0.279637
     25 H9          9.7720   -0.5110   -1.2060 h1        1 MOL      0.007553
     26 H10        10.9480    1.5570   -0.4320 hc        1 MOL      0.087102
     27 H11        10.4130    1.4560   -2.0670 hc        1 MOL      0.087102
     28 H12         9.4910    2.4530   -0.8280 hc        1 MOL      0.087102
     29 N3          6.7920   -0.2060   -1.0470 n         1 MOL     -0.506979
     30 C10         5.5230   -0.3980   -1.7590 c3        1 MOL      0.850647
     31 C11         5.0990    0.8230   -2.5870 c         1 MOL      0.346493
     32 O6          4.6730    0.6320   -3.7780 o         1 MOL     -0.513036
     33 C12         5.2350   -1.8040   -2.3410 c3        1 MOL     -0.609364
     34 C13         3.7520   -2.1820   -2.6660 c         1 MOL      0.859210
     35 O7          3.5360   -3.2390   -3.3360 o         1 MOL     -0.760153
     36 O8          2.7780   -1.5690   -2.1990 o         1 MOL     -0.760153
     37 H13         6.8230   -0.4640   -0.0690 hn        1 MOL      0.200694
     38 H14         4.7530   -0.3570   -0.9900 h1        1 MOL     -0.113912
     39 H15         5.6600   -2.5370   -1.6480 hc        1 MOL      0.108518
     40 H16         5.7710   -1.9680   -3.2790 hc        1 MOL      0.108518
     41 N4          5.2170    1.9900   -2.0050 n         1 MOL     -0.518753
     42 C14         5.1470    3.2590   -2.6850 c3        1 MOL     -0.004384
     43 C15         3.7200    3.7500   -3.0770 c         1 MOL      0.495839
     44 O9          3.6180    4.9750   -3.3270 o         1 MOL     -0.584962
     45 H17         5.7220    1.9170   -1.1370 hn        1 MOL      0.306739
     46 H18         5.7400    3.2300   -3.6070 h1        1 MOL      0.094238
     47 H19         5.6960    4.0220   -2.1330 h1        1 MOL      0.094238
     48 N5          2.5870    3.0040   -2.9350 n         1 MOL     -0.312532
     49 C16         1.2500    3.5150   -3.2590 c3        1 MOL     -0.130825
     50 C17         0.7370    4.7300   -2.3220 c         1 MOL      0.547966
     51 O10         1.0250    4.6940   -1.1440 o         1 MOL     -0.501551
     52 C18         0.2660    2.3820   -3.1210 c3        1 MOL     -0.102158
     53 C19        -1.2050    2.6650   -3.2410 c         1 MOL      0.577837
     54 N6         -1.8600    2.9800   -2.1920 n         1 MOL     -0.643804
     55 O11        -1.6830    2.5940   -4.3380 o         1 MOL     -0.594530
     56 H20         2.7230    2.0400   -2.6640 hn        1 MOL      0.283249
     57 H21         1.2040    3.7930   -4.3150 h1        1 MOL      0.093457
     58 H22         0.3770    2.0020   -2.1050 hc        1 MOL      0.099233
     59 H23         0.4930    1.6790   -3.9150 hc        1 MOL      0.099233
     60 H24        -1.4530    2.8460   -1.2800 hn        1 MOL      0.307909
     61 H25        -2.8710    2.9660   -2.2880 hn        1 MOL      0.307909
     62 N7         -0.0870    5.6390   -2.8280 n         1 MOL     -0.362266
     63 C20        -0.6510    6.7390   -2.0170 c3        1 MOL     -0.122302
     64 C21        -1.8140    6.4180   -1.1130 c         1 MOL      0.565586
     65 O12        -2.8730    5.9160   -1.4780 o         1 MOL     -0.506737
     66 H26        -0.2560    5.5490   -3.8180 hn        1 MOL      0.277527
     67 H27        -1.0020    7.5550   -2.6550 h1        1 MOL      0.087975
     68 H28         0.2000    7.1560   -1.4660 h1        1 MOL      0.087975
     69 N8         -1.6120    6.8570    0.1460 n         1 MOL     -0.437473
     70 C22        -2.7080    6.9340    1.1730 c3        1 MOL     -0.164972
     71 C23        -2.7930    5.6580    2.0590 c         1 MOL      0.418473
     72 O13        -3.8560    5.4670    2.7490 o         1 MOL     -0.558129
     73 C24        -2.5340    8.1970    2.0060 c3        1 MOL      0.448907
     74 C25        -1.4120    8.1240    3.0640 c3        1 MOL     -0.376097
     75 O14        -2.2270    9.2260    1.0280 oh        1 MOL     -0.625224
     76 H29        -0.7010    7.1980    0.4130 hn        1 MOL      0.292844
     77 H30        -3.6810    6.9030    0.6810 h1        1 MOL      0.167168
     78 H31        -3.4810    8.4990    2.4650 h1        1 MOL      0.032627
     79 H32        -1.3110    9.1510    0.7610 ho        1 MOL      0.360605
     80 H33        -1.6490    7.5980    3.9930 hc        1 MOL      0.090012
     81 H34        -0.6100    7.5850    2.5570 hc        1 MOL      0.090012
     82 H35        -1.0090    9.1130    3.2670 hc        1 MOL      0.090012
     83 N9         -1.9330    4.7020    1.8340 n         1 MOL     -0.217860
     84 C26        -2.0290    3.3450    2.3930 c3        1 MOL      0.016577
     85 C27        -1.7360    2.2140    1.3260 c         1 MOL      0.638600
     86 O15        -0.8330    2.3730    0.4580 o         1 MOL     -0.510201
     87 C28        -0.9500    3.2840    3.6160 c3        1 MOL      0.040071
     88 C29        -1.3430    4.0470    4.9110 c3        1 MOL     -0.150713
     89 C30        -0.7820    1.7810    4.1380 c3        1 MOL     -0.256431
     90 C31        -2.7880    3.8350    5.3720 c3        1 MOL     -0.053522
     91 H36        -1.1380    4.9390    1.2490 hn        1 MOL      0.168667
     92 H37        -3.0330    3.0810    2.6960 h1        1 MOL      0.091007
     93 H38         0.0100    3.5970    3.2050 hc        1 MOL      0.044894
     94 H39        -1.2450    5.1120    4.6780 hc        1 MOL      0.063144
     95 H40        -0.6210    3.8610    5.7040 hc        1 MOL      0.063144
     96 H41        -0.2500    1.7310    5.0880 hc        1 MOL      0.076155
     97 H42        -1.7820    1.3520    4.2450 hc        1 MOL      0.076155
     98 H43        -0.3380    1.3110    3.2530 hc        1 MOL      0.076155
     99 H44        -3.5130    4.0130    4.5830 hc        1 MOL      0.018224
    100 H45        -2.9410    2.8790    5.8590 hc        1 MOL      0.018224
    101 H46        -2.8980    4.5830    6.1600 hc        1 MOL      0.018224
    102 N10        -2.3020    1.0440    1.3380 n         1 MOL     -0.789729
    103 C32        -2.0140   -0.0670    0.4180 c3        1 MOL      0.426993
    104 C33        -3.3910   -0.6090    0.0190 c         1 MOL      0.348115
    105 O16        -3.6260   -1.7740   -0.4000 o         1 MOL     -0.447555
    106 C34        -1.1180   -1.1370    1.0350 c3        1 MOL     -0.132908
    107 C35        -0.2420   -1.9000    0.0400 c         1 MOL      0.637852
    108 O17         0.3370   -2.9240    0.4900 o         1 MOL     -0.716191
    109 O18        -0.1480   -1.5060   -1.1860 o         1 MOL     -0.716191
    110 H47        -2.9820    0.8450    2.0600 hn        1 MOL      0.337020
    111 H48        -1.5740    0.3620   -0.4840 h1        1 MOL      0.050402
    112 H49        -1.6590   -1.8590    1.6580 hc        1 MOL      0.046117
    113 H50        -0.3640   -0.5820    1.5860 hc        1 MOL      0.046117
    114 N11        -4.3530    0.3070   -0.1250 n         1 MOL     -0.465700
    115 C36        -5.7760   -0.1350   -0.3050 c3        1 MOL      0.408940
    116 C37        -6.2850   -1.2860    0.5440 c         1 MOL      0.194820
    117 O19        -6.2380   -1.2330    1.7920 o         1 MOL     -0.515987
    118 C38        -6.7840    0.9850   -0.2690 c3        1 MOL     -0.476789
    119 C39        -8.1150    0.6170   -0.8240 ca        1 MOL      0.289144
    120 C40        -8.4100    0.8930   -2.1800 ca        1 MOL     -0.275466
    121 C41        -9.1120    0.0750    0.0080 ca        1 MOL     -0.275466
    122 C42        -9.6690    0.6870   -2.6150 ca        1 MOL     -0.052190
    123 C43       -10.4260   -0.2790   -0.5220 ca        1 MOL     -0.052190
    124 C44       -10.6710    0.0780   -1.8300 ca        1 MOL     -0.173550
    125 H51        -4.1230    1.2600    0.1190 hn        1 MOL      0.276582
    126 H52        -5.7750   -0.4480   -1.3420 h1        1 MOL     -0.007546
    127 H53        -6.3530    1.7960   -0.8540 hc        1 MOL      0.141448
    128 H54        -7.0310    1.3260    0.7270 hc        1 MOL      0.141448
    129 H55        -7.6580    1.3760   -2.7830 ha        1 MOL      0.150219
    130 H56        -8.8270    0.0400    1.0470 ha        1 MOL      0.150219
    131 H57        -9.9660    0.9950   -3.6050 ha        1 MOL      0.101573
    132 H58       -11.1390   -0.8470    0.0490 ha        1 MOL      0.101573
    133 H59       -11.6450   -0.1790   -2.2280 ha        1 MOL      0.109739
    134 N12        -6.5870   -2.4210   -0.1060 n         1 MOL      0.122164
    135 C45        -7.0480   -3.6090    0.6110 c3        1 MOL     -0.012281
    136 C46        -5.9580   -4.2710    1.4930 c         1 MOL      0.569563
    137 O20        -6.3620   -4.7900    2.4820 o         1 MOL     -0.591377
    138 C47        -7.6560   -4.5530   -0.4100 c3        1 MOL     -0.174818
    139 C48        -6.8370   -4.2000   -1.6520 c3        1 MOL      0.017298
    140 C49        -6.5800   -2.7400   -1.5520 c3        1 MOL     -0.226106
    141 H60        -7.9120   -3.3500    1.2360 h1        1 MOL      0.059128
    142 H61        -7.4570   -5.6060   -0.1770 hc        1 MOL      0.067551
    143 H62        -8.6900   -4.4330   -0.7220 hc        1 MOL      0.067551
    144 H63        -5.8700   -4.6700   -1.5160 hc        1 MOL      0.025452
    145 H64        -7.3790   -4.5320   -2.5390 hc        1 MOL      0.025452
    146 H65        -5.6230   -2.5210   -2.0370 h1        1 MOL      0.103040
    147 H66        -7.3980   -2.3040   -2.1240 h1        1 MOL      0.103040
    148 N13        -4.6260   -4.1470    1.2420 n         1 MOL     -0.274214
    149 C50        -3.5480   -4.9080    1.8360 c3        1 MOL      0.013167
    150 C51        -3.0390   -4.4320    3.2160 c         1 MOL      0.425610
    151 O21        -2.1280   -5.0820    3.7520 o         1 MOL     -0.521562
    152 C52        -2.5020   -5.2570    0.8000 c3        1 MOL      0.133985
    153 C53        -2.9650   -5.6400   -0.6460 c3        1 MOL     -0.244276
    154 C54        -1.7150   -5.8200   -1.5270 c         1 MOL      0.710112
    155 O22        -1.2300   -4.7980   -2.0680 o         1 MOL     -0.706575
    156 O23        -1.1070   -6.9180   -1.4770 o         1 MOL     -0.706575
    157 H67        -4.3650   -3.4690    0.5390 hn        1 MOL      0.155584
    158 H68        -4.0680   -5.8210    2.1190 h1        1 MOL      0.055675
    159 H69        -1.8760   -6.0370    1.2490 hc        1 MOL     -0.012562
    160 H70        -1.8700   -4.3780    0.7100 hc        1 MOL     -0.012562
    161 H71        -3.4820   -4.8070   -1.1190 hc        1 MOL      0.036371
    162 H72        -3.5480   -6.5620   -0.7000 hc        1 MOL      0.036371
    163 N14        -3.6100   -3.3670    3.8630 n         1 MOL     -0.266485
    164 C55        -3.2800   -2.7670    5.1970 c3        1 MOL     -0.064102
    165 H73        -2.8720   -1.7660    5.0530 h1        1 MOL      0.059170
    166 H74        -4.1830   -2.7070    5.8030 h1        1 MOL      0.059170
    167 H75        -2.5430   -3.3900    5.7040 h1        1 MOL      0.059170
    168 H76        -4.4140   -3.0290    3.3590 hn        1 MOL      0.224421
    169 Ca1         1.3080   -3.8050   -1.7790 Ca        1 MOL      1.790511
    170 O24         1.0990   -6.3280   -0.2590 oh        1 MOL     -0.859178
    171 H77         1.3010   -7.0650    0.3200 ho        1 MOL      0.413381
    172 H78         0.2260   -6.5270   -0.5990 ho        1 MOL      0.413381
    173 O25         3.3950   -4.4020   -0.1410 oh        1 MOL     -0.859178
    174 H79         3.1020   -4.9710    0.5750 ho        1 MOL      0.413381
    175 H80         4.2800   -4.1330    0.0970 ho        1 MOL      0.413381
    176 O26         2.0980   -5.7720   -3.3170 oh        1 MOL     -0.859178
    177 H81         2.2280   -5.5480   -4.2330 ho        1 MOL      0.413381
    178 H82         2.8880   -6.2560   -3.0720 ho        1 MOL      0.413381
    179 O27         0.4800   -3.1480   -4.1650 oh        1 MOL     -0.859178
    180 H83         1.0030   -3.0340   -4.9640 ho        1 MOL      0.413381
    181 H84        -0.4010   -3.3210   -4.4850 ho        1 MOL      0.413381
@<TRIPOS>BOND
     1    1    2 1   
     2    1    4 1   
     3    1    5 1   
     4    1    6 1   
     5    2    3 2   
     6    2    7 1   
     7    7    8 1   
     8    7   15 1   
     9    8    9 1   
    10    8   11 1   
    11    8   16 1   
    12    9   10 2   
    13    9   19 1   
    14   11   12 1   
    15   11   17 1   
    16   11   18 1   
    17   12   13 1   
    18   12   14 1   
    19   19   20 1   
    20   19   24 1   
    21   20   21 1   
    22   20   23 1   
    23   20   25 1   
    24   21   22 2   
    25   21   29 1   
    26   23   26 1   
    27   23   27 1   
    28   23   28 1   
    29   29   30 1   
    30   29   37 1   
    31   30   31 1   
    32   30   33 1   
    33   30   38 1   
    34   31   32 2   
    35   31   41 1   
    36   33   34 1   
    37   33   39 1   
    38   33   40 1   
    39   34   35 1   
    40   34   36 1   
    41   41   42 1   
    42   41   45 1   
    43   42   43 1   
    44   42   46 1   
    45   42   47 1   
    46   43   44 2   
    47   43   48 1   
    48   48   49 1   
    49   48   56 1   
    50   49   50 1   
    51   49   52 1   
    52   49   57 1   
    53   50   51 2   
    54   50   62 1   
    55   52   53 1   
    56   52   58 1   
    57   52   59 1   
    58   53   54 1   
    59   53   55 2   
    60   54   60 1   
    61   54   61 1   
    62   62   63 1   
    63   62   66 1   
    64   63   64 1   
    65   63   67 1   
    66   63   68 1   
    67   64   65 2   
    68   64   69 1   
    69   69   70 1   
    70   69   76 1   
    71   70   71 1   
    72   70   73 1   
    73   70   77 1   
    74   71   72 2   
    75   71   83 1   
    76   73   74 1   
    77   73   75 1   
    78   73   78 1   
    79   74   80 1   
    80   74   81 1   
    81   74   82 1   
    82   75   79 1   
    83   83   84 1   
    84   83   91 1   
    85   84   85 1   
    86   84   87 1   
    87   84   92 1   
    88   85   86 2   
    89   85  102 1   
    90   87   88 1   
    91   87   89 1   
    92   87   93 1   
    93   88   90 1   
    94   88   94 1   
    95   88   95 1   
    96   89   96 1   
    97   89   97 1   
    98   89   98 1   
    99   90   99 1   
   100   90  100 1   
   101   90  101 1   
   102  102  103 1   
   103  102  110 1   
   104  103  104 1   
   105  103  106 1   
   106  103  111 1   
   107  104  105 2   
   108  104  114 1   
   109  106  107 1   
   110  106  112 1   
   111  106  113 1   
   112  107  108 1   
   113  107  109 1   
   114  114  115 1   
   115  114  125 1   
   116  115  116 1   
   117  115  118 1   
   118  115  126 1   
   119  116  117 2   
   120  116  134 1   
   121  118  119 1   
   122  118  127 1   
   123  118  128 1   
   124  119  120 ar  
   125  119  121 ar  
   126  120  122 ar  
   127  120  129 1   
   128  121  123 ar  
   129  121  130 1   
   130  122  124 ar  
   131  122  131 1   
   132  123  124 ar  
   133  123  132 1   
   134  124  133 1   
   135  134  135 1   
   136  134  140 1   
   137  135  136 1   
   138  135  138 1   
   139  135  141 1   
   140  136  137 2   
   141  136  148 1   
   142  138  139 1   
   143  138  142 1   
   144  138  143 1   
   145  139  140 1   
   146  139  144 1   
   147  139  145 1   
   148  140  146 1   
   149  140  147 1   
   150  148  149 1   
   151  148  157 1   
   152  149  150 1   
   153  149  152 1   
   154  149  158 1   
   155  150  151 2   
   156  150  163 1   
   157  152  153 1   
   158  152  159 1   
   159  152  160 1   
   160  153  154 1   
   161  153  161 1   
   162  153  162 1   
   163  154  155 1   
   164  154  156 1   
   165  163  164 1   
   166  163  168 1   
   167  164  165 1   
   168  164  166 1   
   169  164  167 1   
   170  170  171 1   
   171  170  172 1   
   172  173  174 1   
   173  173  175 1   
   174  176  177 1   
   175  176  178 1   
   176  179  180 1   
   177  179  181 1   
@<TRIPOS>SUBSTRUCTURE
     1 MOL         1 TEMP              0 ****  ****    0 ROOT
