@<TRIPOS>MOLECULE
MOL
  182   178     1     0     0
SMALL
resp


@<TRIPOS>ATOM
      1 C1          1.6570   -5.3680    5.8080 c3        1 MOL     -0.286525
      2 C2          1.6480   -4.7730    4.3870 c         1 MOL      0.702111
      3 O1          0.8250   -5.2690    3.5750 o         1 MOL     -0.581132
      4 H1          2.6680   -5.6860    6.0610 hc        1 MOL      0.077706
      5 H2          1.3250   -4.6130    6.5210 hc        1 MOL      0.077706
      6 H3          0.9860   -6.2260    5.8480 hc        1 MOL      0.077706
      7 N1          2.5860   -3.8140    4.0980 n         1 MOL     -0.642737
      8 C3          2.5620   -3.1390    2.7830 c3        1 MOL     -0.047532
      9 C4          3.0600   -4.1410    1.7390 c         1 MOL      0.655461
     10 O2          4.2010   -4.7020    1.7590 o         1 MOL     -0.553281
     11 C5          3.4840   -1.9670    2.7680 c3        1 MOL     -0.191658
     12 C6          3.5660   -1.2050    1.5040 c         1 MOL      0.586778
     13 O3          3.9240    0.0040    1.5250 o         1 MOL     -0.689054
     14 O4          3.1580   -1.7350    0.4380 o         1 MOL     -0.689054
     15 H4          3.2050   -3.5050    4.8270 hn        1 MOL      0.350669
     16 H5          1.5560   -2.7540    2.6320 h1        1 MOL      0.163634
     17 H6          4.5240   -2.2460    2.9420 hc        1 MOL      0.089330
     18 H7          3.1180   -1.2840    3.5420 hc        1 MOL      0.089330
     19 N2          2.2120   -4.4390    0.7250 n         1 MOL     -0.339770
     20 C7          2.3260   -5.4930   -0.2600 c3        1 MOL     -0.254632
     21 C8          3.3440   -5.1290   -1.3390 c         1 MOL      0.588910
     22 O5          3.7720   -6.0210   -2.0530 o         1 MOL     -0.576148
     23 C9          0.9560   -5.8560   -0.8940 c3        1 MOL      0.161945
     24 C10         0.9870   -7.1320   -1.7140 c3        1 MOL      0.054714
     25 C11        -0.4430   -7.5220   -2.1740 c3        1 MOL     -0.091591
     26 C12        -1.2520   -6.4860   -2.9310 c3        1 MOL      0.170368
     27 N3         -2.5030   -7.0040   -3.3810 n4        1 MOL     -0.326112
     28 H8          1.4530   -3.7900    0.5920 hn        1 MOL      0.261011
     29 H9          2.6400   -6.3800    0.2920 h1        1 MOL      0.167344
     30 H10         0.5000   -5.0020   -1.3980 hc        1 MOL     -0.035050
     31 H11         0.2260   -5.9570   -0.0900 hc        1 MOL     -0.035050
     32 H12         1.5060   -7.9010   -1.1340 hc        1 MOL      0.025393
     33 H13         1.6100   -6.9840   -2.6040 hc        1 MOL      0.025393
     34 H14        -0.9780   -7.8850   -1.2920 hc        1 MOL      0.021313
     35 H15        -0.3580   -8.3570   -2.8750 hc        1 MOL      0.021313
     36 H16        -0.6080   -6.0130   -3.6850 hx        1 MOL      0.030794
     37 H17        -1.5080   -5.6730   -2.2540 hx        1 MOL      0.030794
     38 H18        -2.2490   -7.8170   -3.9220 hn        1 MOL      0.280256
     39 H19        -3.0490   -7.3680   -2.6100 hn        1 MOL      0.280256
     40 H20        -3.0180   -6.3170   -3.9190 hn        1 MOL      0.280256
     41 N4          3.7500   -3.8400   -1.4860 n         1 MOL     -0.332680
     42 C13         4.8190   -3.5100   -2.4270 c3        1 MOL      0.223095
     43 C14         6.0680   -2.9510   -1.6830 c         1 MOL      0.309276
     44 O6          7.1140   -3.3450   -2.2400 o         1 MOL     -0.546091
     45 C15         4.3210   -2.6420   -3.6000 c3        1 MOL     -0.496892
     46 C16         3.6480   -1.4370   -3.0670 c         1 MOL      0.811488
     47 O7          4.2300   -0.5870   -2.3560 o         1 MOL     -0.753151
     48 O8          2.3950   -1.3640   -3.1440 o         1 MOL     -0.753151
     49 H21         3.4720   -3.1910   -0.7570 hn        1 MOL      0.143128
     50 H22         5.2070   -4.4380   -2.8280 h1        1 MOL      0.089795
     51 H23         3.6350   -3.2300   -4.2260 hc        1 MOL      0.130642
     52 H24         5.1500   -2.2660   -4.1910 hc        1 MOL      0.130642
     53 N5          5.9910   -2.3890   -0.5380 n         1 MOL      0.125927
     54 C17         7.1300   -1.9850    0.3140 c3        1 MOL     -0.268093
     55 C18         7.4190   -0.4150    0.2890 c         1 MOL      0.690949
     56 O9          8.3200    0.0330    0.9520 o         1 MOL     -0.598912
     57 H25         5.0820   -2.2680   -0.1310 hn        1 MOL      0.009944
     58 H26         8.0140   -2.5870    0.1000 h1        1 MOL      0.119363
     59 H27         6.8190   -2.0600    1.3510 h1        1 MOL      0.119363
     60 N6          6.8110    0.3190   -0.5950 n         1 MOL     -0.354793
     61 C19         7.0540    1.7930   -0.7930 c3        1 MOL      0.003704
     62 C20         5.7320    2.5550   -1.0200 c         1 MOL      0.776593
     63 O10         4.5900    1.9790   -1.0510 o         1 MOL     -0.623309
     64 C21         7.9090    1.9660   -1.9910 c3        1 MOL     -0.431990
     65 C22         9.2140    1.2400   -1.9400 c         1 MOL      0.789020
     66 N7         10.1810    1.9510   -1.3820 n         1 MOL     -0.836769
     67 O11         9.4200    0.1990   -2.5090 o         1 MOL     -0.549977
     68 H28         6.1790   -0.1620   -1.2110 hn        1 MOL      0.250700
     69 H29         7.5720    2.2550    0.0420 h1        1 MOL      0.065812
     70 H30         8.1900    3.0120   -2.1520 hc        1 MOL      0.112375
     71 H31         7.3730    1.5530   -2.8400 hc        1 MOL      0.112375
     72 H32         9.9060    2.7520   -0.8220 hn        1 MOL      0.373679
     73 H33        11.1430    1.6520   -1.4080 hn        1 MOL      0.373679
     74 N8          5.8370    3.9120   -1.1610 n         1 MOL     -0.658126
     75 C23         4.6650    4.7490   -1.4350 c3        1 MOL      0.092365
     76 C24         3.7900    4.8620   -0.1920 c         1 MOL      0.534296
     77 O12         4.2740    4.8590    0.9870 o         1 MOL     -0.505773
     78 H34         6.6890    4.4120   -0.9720 hn        1 MOL      0.371821
     79 H35         3.9900    4.3500   -2.2040 h1        1 MOL      0.051099
     80 H36         4.8600    5.7610   -1.7760 h1        1 MOL      0.051099
     81 N9          2.4710    4.9610   -0.3920 n         1 MOL     -0.611405
     82 C25         1.4420    4.8440    0.5950 c3        1 MOL      0.305790
     83 C26         1.3260    3.4290    1.1610 c         1 MOL      0.442771
     84 O13         1.9900    2.5190    0.7360 o         1 MOL     -0.444212
     85 C27         0.0830    5.2590   -0.0130 c3        1 MOL     -0.179733
     86 C28         0.0400    6.7470   -0.3270 ca        1 MOL      0.025072
     87 C29        -0.1200    7.2450   -1.6550 ca        1 MOL     -0.113701
     88 C30         0.2970    7.7090    0.6720 ca        1 MOL     -0.113701
     89 C31         0.1120    8.5770   -2.0050 ca        1 MOL     -0.291099
     90 C32         0.4600    9.0760    0.3530 ca        1 MOL     -0.291099
     91 C33         0.3380    9.4690   -0.9580 ca        1 MOL      0.370999
     92 O14         0.3410   10.7860   -1.1520 oh        1 MOL     -0.455222
     93 H37         2.1120    5.0530   -1.3310 hn        1 MOL      0.269816
     94 H38         1.5870    5.4850    1.4730 h1        1 MOL      0.061012
     95 H39        -0.6970    5.0590    0.7200 hc        1 MOL      0.046999
     96 H40        -0.1150    4.7550   -0.9700 hc        1 MOL      0.046999
     97 H41        -0.2670    6.5020   -2.4240 ha        1 MOL      0.113401
     98 H42         0.5830    7.4030    1.6690 ha        1 MOL      0.113401
     99 H43        -0.0080    8.8390   -3.0460 ha        1 MOL      0.169327
    100 H44         0.6560    9.7900    1.1460 ha        1 MOL      0.169327
    101 H45         0.1990   10.9710   -2.0830 ho        1 MOL      0.353661
    102 N10         0.5400    3.3200    2.2090 n         1 MOL     -0.591783
    103 C34         0.2960    2.1680    2.9860 c3        1 MOL      0.447979
    104 C35        -0.0790    0.8740    2.1530 c         1 MOL      0.074971
    105 O15         0.8080    0.3810    1.4100 o         1 MOL     -0.365240
    106 C36         1.4340    1.8740    4.0290 c3        1 MOL      0.073499
    107 C37         1.0710    0.6390    4.9900 c3        1 MOL      0.028273
    108 C38         1.7990    3.0960    4.9210 c3        1 MOL     -0.331212
    109 C39        -0.1120    0.9810    6.0080 c3        1 MOL     -0.515404
    110 H46        -0.0590    4.1100    2.4220 hn        1 MOL      0.289541
    111 H47        -0.5770    2.4590    3.5850 h1        1 MOL     -0.023688
    112 H48         2.2860    1.5980    3.4120 hc        1 MOL      0.070592
    113 H49         2.0200    0.3490    5.4450 hc        1 MOL      0.034209
    114 H50         0.8940   -0.2550    4.3900 hc        1 MOL      0.034209
    115 H51         0.9080    3.6150    5.2690 hc        1 MOL      0.090268
    116 H52         2.4220    2.8150    5.7730 hc        1 MOL      0.090268
    117 H53         2.3850    3.8290    4.3750 hc        1 MOL      0.090268
    118 H54        -1.0040    1.1080    5.3970 hc        1 MOL      0.137126
    119 H55        -0.2510    0.2260    6.7880 hc        1 MOL      0.137126
    120 H56         0.2400    1.8540    6.5640 hc        1 MOL      0.137126
    121 N11        -1.3180    0.3750    2.2790 n         1 MOL     -0.299551
    122 C40        -1.7500   -0.8070    1.4600 c3        1 MOL     -0.047611
    123 C41        -3.2630   -0.8270    1.1410 c         1 MOL      0.699248
    124 O16        -3.8930   -1.8250    1.3420 o         1 MOL     -0.574179
    125 C42        -1.2320   -2.0990    2.1520 c3        1 MOL      0.189299
    126 O17        -0.7380   -3.1360    1.2720 oh        1 MOL     -0.653097
    127 H57        -2.0070    0.7750    2.9010 hn        1 MOL      0.269594
    128 H58        -1.2950   -0.7120    0.4720 h1        1 MOL      0.048286
    129 H59        -1.9730   -2.5060    2.8430 h1        1 MOL      0.045604
    130 H60        -0.4780   -1.8110    2.8950 h1        1 MOL      0.045604
    131 H61        -1.4480   -3.7360    1.0360 ho        1 MOL      0.427107
    132 N12        -3.8130    0.1890    0.5140 n         1 MOL     -0.694259
    133 C43        -5.2130    0.2410    0.0950 c3        1 MOL      0.251654
    134 C44        -5.4140    1.0280   -1.2000 c         1 MOL      0.569086
    135 O18        -4.6750    1.9670   -1.4780 o         1 MOL     -0.550341
    136 C45        -5.9320    0.7980    1.3260 c3        1 MOL     -0.140823
    137 H62        -3.2480    1.0070    0.3300 hn        1 MOL      0.292967
    138 H63        -5.6150   -0.7600   -0.0640 h1        1 MOL      0.068073
    139 H64        -5.7370    0.1580    2.1960 hc        1 MOL      0.051873
    140 H65        -5.6120    1.8100    1.5630 hc        1 MOL      0.051873
    141 H66        -6.9980    0.8420    1.1280 hc        1 MOL      0.051873
    142 N13        -6.4790    0.6410   -1.9860 n         1 MOL     -0.672118
    143 C46        -7.5600   -0.3540   -1.7150 c3        1 MOL      0.414072
    144 C47        -8.8430    0.2990   -2.3040 c         1 MOL      0.348496
    145 O19        -8.7820    0.8230   -3.4110 o         1 MOL     -0.500179
    146 C48        -7.2960   -1.7340   -2.3940 c3        1 MOL     -0.329509
    147 H67        -6.5450    1.1570   -2.8560 hn        1 MOL      0.347826
    148 H68        -7.6540   -0.5050   -0.6410 h1        1 MOL     -0.048735
    149 H69        -8.1460   -2.3920   -2.2430 hc        1 MOL      0.092521
    150 H70        -7.0960   -1.5730   -3.4570 hc        1 MOL      0.092521
    151 H71        -6.3800   -2.2020   -2.0260 hc        1 MOL      0.092521
    152 N14       -10.0080   -0.0060   -1.7190 n         1 MOL     -0.346975
    153 C49       -10.3220   -0.8190   -0.5390 c3        1 MOL     -0.068680
    154 C50        -9.9700   -0.1610    0.8020 c         1 MOL      0.494541
    155 O20        -9.5960   -0.8240    1.7760 o         1 MOL     -0.533061
    156 C51       -11.8050   -1.2380   -0.6430 c3        1 MOL      0.079328
    157 C52       -12.7760   -0.1090   -0.2000 c3        1 MOL     -0.392418
    158 C53       -14.1970   -0.4190   -0.7350 c         1 MOL      0.732805
    159 O21       -14.4020   -0.3050   -1.9760 o         1 MOL     -0.672038
    160 O22       -15.0730   -0.6560    0.1360 o         1 MOL     -0.672038
    161 H72       -10.7320    0.1410   -2.4060 hn        1 MOL      0.300019
    162 H73        -9.7580   -1.7510   -0.5200 h1        1 MOL      0.043025
    163 H74       -12.0600   -2.1500   -0.1130 hc        1 MOL      0.034181
    164 H75       -12.0510   -1.5200   -1.6660 hc        1 MOL      0.034181
    165 H76       -12.5740    0.9090   -0.5440 hc        1 MOL      0.103265
    166 H77       -12.7670   -0.1910    0.8900 hc        1 MOL      0.103265
    167 N15       -10.0650    1.1600    0.8710 n         1 MOL     -0.241714
    168 C54        -9.8210    2.0390    2.0480 c3        1 MOL     -0.316343
    169 H78       -10.5930    1.8640    2.7980 h1        1 MOL      0.134867
    170 H79        -8.8430    1.8130    2.4740 h1        1 MOL      0.134867
    171 H80        -9.8480    3.0830    1.7350 h1        1 MOL      0.134867
    172 H81       -10.4390    1.5880    0.0420 hn        1 MOL      0.221327
    173 Ca1         2.3310    0.3850   -0.7820 Ca        1 MOL      1.753607
    174 O23        -0.2490    1.4060   -1.1820 oh        1 MOL     -0.793109
    175 H82        -0.4690    1.4490   -2.1140 ho        1 MOL      0.399755
    176 H83        -0.9480    1.9040   -0.7560 ho        1 MOL      0.399755
    177 O24         2.0680    1.8820   -2.9800 oh        1 MOL     -0.793109
    178 H84         2.0920    2.8420   -3.0470 ho        1 MOL      0.399755
    179 H85         2.3220    1.5690   -3.8470 ho        1 MOL      0.399755
    180 O25         0.5590   -1.4370   -0.8900 oh        1 MOL     -0.793109
    181 H86         0.3680   -2.0460   -0.1710 ho        1 MOL      0.399755
    182 H87        -0.1480   -1.5750   -1.5100 ho        1 MOL      0.399755
@<TRIPOS>BOND
     1    1    2 1   
     2    1    4 1   
     3    1    5 1   
     4    1    6 1   
     5    2    3 2   
     6    2    7 1   
     7    7    8 1   
     8    7   15 1   
     9    8    9 1   
    10    8   11 1   
    11    8   16 1   
    12    9   10 2   
    13    9   19 1   
    14   11   12 1   
    15   11   17 1   
    16   11   18 1   
    17   12   13 1   
    18   12   14 1   
    19   19   20 1   
    20   19   28 1   
    21   20   21 1   
    22   20   23 1   
    23   20   29 1   
    24   21   22 2   
    25   21   41 1   
    26   23   24 1   
    27   23   30 1   
    28   23   31 1   
    29   24   25 1   
    30   24   32 1   
    31   24   33 1   
    32   25   26 1   
    33   25   34 1   
    34   25   35 1   
    35   26   27 1   
    36   26   36 1   
    37   26   37 1   
    38   27   38 1   
    39   27   39 1   
    40   27   40 1   
    41   41   42 1   
    42   41   49 1   
    43   42   43 1   
    44   42   45 1   
    45   42   50 1   
    46   43   44 2   
    47   43   53 1   
    48   45   46 1   
    49   45   51 1   
    50   45   52 1   
    51   46   47 1   
    52   46   48 1   
    53   53   54 1   
    54   53   57 1   
    55   54   55 1   
    56   54   58 1   
    57   54   59 1   
    58   55   56 2   
    59   55   60 1   
    60   60   61 1   
    61   60   68 1   
    62   61   62 1   
    63   61   64 1   
    64   61   69 1   
    65   62   63 2   
    66   62   74 1   
    67   64   65 1   
    68   64   70 1   
    69   64   71 1   
    70   65   66 1   
    71   65   67 2   
    72   66   72 1   
    73   66   73 1   
    74   74   75 1   
    75   74   78 1   
    76   75   76 1   
    77   75   79 1   
    78   75   80 1   
    79   76   77 2   
    80   76   81 1   
    81   81   82 1   
    82   81   93 1   
    83   82   83 1   
    84   82   85 1   
    85   82   94 1   
    86   83   84 2   
    87   83  102 1   
    88   85   86 1   
    89   85   95 1   
    90   85   96 1   
    91   86   87 ar  
    92   86   88 ar  
    93   87   89 ar  
    94   87   97 1   
    95   88   90 ar  
    96   88   98 1   
    97   89   91 ar  
    98   89   99 1   
    99   90   91 ar  
   100   90  100 1   
   101   91   92 1   
   102   92  101 1   
   103  102  103 1   
   104  102  110 1   
   105  103  104 1   
   106  103  106 1   
   107  103  111 1   
   108  104  105 2   
   109  104  121 1   
   110  106  107 1   
   111  106  108 1   
   112  106  112 1   
   113  107  109 1   
   114  107  113 1   
   115  107  114 1   
   116  108  115 1   
   117  108  116 1   
   118  108  117 1   
   119  109  118 1   
   120  109  119 1   
   121  109  120 1   
   122  121  122 1   
   123  121  127 1   
   124  122  123 1   
   125  122  125 1   
   126  122  128 1   
   127  123  124 2   
   128  123  132 1   
   129  125  126 1   
   130  125  129 1   
   131  125  130 1   
   132  126  131 1   
   133  132  133 1   
   134  132  137 1   
   135  133  134 1   
   136  133  136 1   
   137  133  138 1   
   138  134  135 2   
   139  134  142 1   
   140  136  139 1   
   141  136  140 1   
   142  136  141 1   
   143  142  143 1   
   144  142  147 1   
   145  143  144 1   
   146  143  146 1   
   147  143  148 1   
   148  144  145 2   
   149  144  152 1   
   150  146  149 1   
   151  146  150 1   
   152  146  151 1   
   153  152  153 1   
   154  152  161 1   
   155  153  154 1   
   156  153  156 1   
   157  153  162 1   
   158  154  155 2   
   159  154  167 1   
   160  156  157 1   
   161  156  163 1   
   162  156  164 1   
   163  157  158 1   
   164  157  165 1   
   165  157  166 1   
   166  158  159 1   
   167  158  160 1   
   168  167  168 1   
   169  167  172 1   
   170  168  169 1   
   171  168  170 1   
   172  168  171 1   
   173  174  175 1   
   174  174  176 1   
   175  177  178 1   
   176  177  179 1   
   177  180  181 1   
   178  180  182 1   
@<TRIPOS>SUBSTRUCTURE
     1 MOL         1 TEMP              0 ****  ****    0 ROOT
