@<TRIPOS>MOLECULE
MOL
  184   179     1     0     0
SMALL
resp


@<TRIPOS>ATOM
      1 C1         -4.3600    1.6200    3.9410 c3        1 MOL     -0.463020
      2 C2         -5.2400    0.4030    3.5960 c         1 MOL      0.720480
      3 O1         -4.7190   -0.6660    3.4050 o         1 MOL     -0.586077
      4 H1         -3.6410    1.3400    4.7110 hc        1 MOL      0.117889
      5 H2         -3.8270    1.9480    3.0490 hc        1 MOL      0.117889
      6 H3         -4.9890    2.4310    4.3090 hc        1 MOL      0.117889
      7 N1         -6.5490    0.5300    3.5310 n         1 MOL     -0.514484
      8 C3         -7.4520   -0.5040    2.9570 c3        1 MOL     -0.001288
      9 C4         -7.2740   -0.7320    1.4140 c         1 MOL      0.654806
     10 O2         -7.4160    0.2930    0.6960 o         1 MOL     -0.611641
     11 C5         -8.8300   -0.0870    3.4960 c3        1 MOL     -0.064207
     12 C6         -9.7470   -1.2530    3.1620 c         1 MOL      0.666372
     13 O3         -9.9970   -1.5620    1.9710 o         1 MOL     -0.710668
     14 O4        -10.3480   -1.7260    4.1340 o         1 MOL     -0.710668
     15 H4         -7.0030    1.3920    3.8010 hn        1 MOL      0.293249
     16 H5         -7.1930   -1.4480    3.4330 h1        1 MOL      0.050993
     17 H6         -9.0890    0.8370    2.9880 hc        1 MOL      0.000398
     18 H7         -8.8250    0.1850    4.5450 hc        1 MOL      0.000398
     19 N2         -6.9060   -1.9380    0.9620 n         1 MOL     -0.575430
     20 C7         -6.7030   -2.2950   -0.4610 c3        1 MOL      0.461445
     21 C8         -5.1970   -2.3450   -0.8700 c         1 MOL      0.393209
     22 O5         -4.3720   -2.4420   -0.0030 o         1 MOL     -0.458642
     23 C9         -7.4220   -3.6240   -0.7520 c3        1 MOL     -0.204099
     24 H8         -6.7000   -2.5960    1.7050 hn        1 MOL      0.305651
     25 H9         -7.2980   -1.6120   -1.0650 h1        1 MOL     -0.021894
     26 H10        -7.5530   -3.8570   -1.8170 hc        1 MOL      0.046759
     27 H11        -6.9410   -4.4600   -0.2390 hc        1 MOL      0.046759
     28 H12        -8.3630   -3.5810   -0.2050 hc        1 MOL      0.046759
     29 N3         -4.8950   -2.3290   -2.2000 n         1 MOL     -0.567908
     30 C10        -3.4630   -2.5050   -2.6220 c3        1 MOL     -0.060009
     31 C11        -3.1320   -4.0280   -2.7470 c         1 MOL      0.733786
     32 O6         -4.0540   -4.8030   -3.0000 o         1 MOL     -0.550987
     33 C12        -3.0590   -1.8430   -3.9000 c3        1 MOL     -0.064397
     34 C13        -3.5030   -0.3120   -3.8790 c         1 MOL      0.746715
     35 O7         -4.0410    0.1620   -4.9090 o         1 MOL     -0.730636
     36 O8         -3.1680    0.3320   -2.8760 o         1 MOL     -0.730636
     37 H13        -5.5910   -2.3060   -2.9320 hn        1 MOL      0.333424
     38 H14        -2.8140   -2.1120   -1.8330 h1        1 MOL      0.118505
     39 H15        -3.4290   -2.3010   -4.8160 hc        1 MOL      0.010498
     40 H16        -1.9780   -1.9120   -4.0400 hc        1 MOL      0.010498
     41 N4         -1.8120   -4.4530   -2.6790 n         1 MOL     -0.600606
     42 C14        -1.3640   -5.8250   -2.7350 c3        1 MOL     -0.007909
     43 C15         0.1020   -6.0480   -3.1330 c         1 MOL      0.503182
     44 O9          0.4150   -7.1780   -3.4910 o         1 MOL     -0.527473
     45 H17        -1.1490   -3.7000   -2.8060 hn        1 MOL      0.233772
     46 H18        -2.0310   -6.3750   -3.4010 h1        1 MOL      0.082047
     47 H19        -1.4010   -6.3130   -1.7480 h1        1 MOL      0.082047
     48 N5          1.0160   -5.0570   -2.9360 n         1 MOL     -0.283003
     49 C16         2.4700   -5.3380   -3.0180 c3        1 MOL     -0.170358
     50 C17         3.0980   -5.8010   -1.6530 c         1 MOL      0.610723
     51 O10         4.1620   -6.4650   -1.6520 o         1 MOL     -0.536985
     52 C18         3.1960   -4.1070   -3.6250 c3        1 MOL     -0.273574
     53 C19         2.5990   -3.8820   -5.0250 c         1 MOL      0.641180
     54 N6          2.3560   -2.6960   -5.4040 n         1 MOL     -0.747225
     55 O11         2.2990   -4.7560   -5.8090 o         1 MOL     -0.535520
     56 H20         0.7160   -4.1510   -2.5940 hn        1 MOL      0.296869
     57 H21         2.6310   -6.1960   -3.6630 h1        1 MOL      0.150609
     58 H22         4.2440   -4.3920   -3.7060 hc        1 MOL      0.124973
     59 H23         2.9340   -3.2440   -3.0180 hc        1 MOL      0.124973
     60 H24         2.3710   -1.8920   -4.7950 hn        1 MOL      0.357379
     61 H25         2.1400   -2.5020   -6.3700 hn        1 MOL      0.357379
     62 N7          2.4260   -5.5260   -0.5270 n         1 MOL     -0.441708
     63 C20         3.0170   -5.6990    0.7940 c3        1 MOL     -0.100494
     64 C21         3.8930   -4.5330    1.2850 c         1 MOL      0.472935
     65 O12         3.9000   -3.4670    0.6480 o         1 MOL     -0.429076
     66 H26         1.6370   -4.8990   -0.5540 hn        1 MOL      0.277841
     67 H27         3.6160   -6.6170    0.7340 h1        1 MOL      0.091029
     68 H28         2.1720   -5.8520    1.4730 h1        1 MOL      0.091029
     69 N8          4.5500   -4.7350    2.3820 n         1 MOL     -0.155370
     70 C22         5.6270   -3.8330    2.8320 c3        1 MOL     -0.544309
     71 C23         4.9860   -2.4850    3.2300 c         1 MOL      0.632344
     72 O13         5.5770   -1.4190    3.1450 o         1 MOL     -0.551421
     73 C24         6.2730   -4.4930    4.0640 c3        1 MOL      0.591185
     74 C25         5.7790   -4.2580    5.3860 c3        1 MOL     -0.305346
     75 O14         6.2510   -5.8770    4.0080 oh        1 MOL     -0.637652
     76 H29         4.4200   -5.6270    2.8290 hn        1 MOL      0.147869
     77 H30         6.3420   -3.7100    2.0170 h1        1 MOL      0.262476
     78 H31         7.3090   -4.1660    4.0220 h1        1 MOL      0.007230
     79 H32         5.3730   -6.1430    4.2720 ho        1 MOL      0.395188
     80 H33         4.8090   -4.7520    5.4950 hc        1 MOL      0.064063
     81 H34         6.5000   -4.7740    6.0100 hc        1 MOL      0.064063
     82 H35         5.7680   -3.1780    5.5740 hc        1 MOL      0.064063
     83 N9          3.6370   -2.4610    3.4740 n         1 MOL     -0.304712
     84 C26         2.9170   -1.1930    3.7300 c3        1 MOL      0.006364
     85 C27         2.0240   -0.7610    2.5240 c         1 MOL      0.476914
     86 O15         1.2770   -1.5870    2.0230 o         1 MOL     -0.479721
     87 C28         1.9740   -1.3790    5.0320 c3        1 MOL      0.160094
     88 C29         2.7550   -1.8210    6.2700 c3        1 MOL     -0.137269
     89 C30         1.1890   -0.1070    5.2910 c3        1 MOL     -0.106041
     90 C31         3.8390   -0.8880    6.6900 c3        1 MOL     -0.244545
     91 H36         3.2150   -3.3620    3.6360 hn        1 MOL      0.180263
     92 H37         3.6270   -0.3880    3.9310 h1        1 MOL      0.067998
     93 H38         1.3090   -2.2270    4.8970 hc        1 MOL     -0.007319
     94 H39         3.2370   -2.7880    6.1440 hc        1 MOL      0.043539
     95 H40         2.1080   -1.8880    7.1540 hc        1 MOL      0.043539
     96 H41         0.3660   -0.0080    4.5920 hc        1 MOL      0.037894
     97 H42         0.7570   -0.0730    6.2870 hc        1 MOL      0.037894
     98 H43         1.8370    0.7710    5.2140 hc        1 MOL      0.037894
     99 H44         4.6790   -0.8890    6.0000 hc        1 MOL      0.061658
    100 H45         3.4550    0.0930    6.9670 hc        1 MOL      0.061658
    101 H46         4.2580   -1.3040    7.5960 hc        1 MOL      0.061658
    102 N10         2.1240    0.5500    2.1310 n         1 MOL     -0.581584
    103 C32         1.3650    1.1640    0.9780 c3        1 MOL      0.375784
    104 C33         2.2600    2.0560   -0.0430 c         1 MOL      0.481213
    105 O16         1.6970    2.8150   -0.8160 o         1 MOL     -0.505323
    106 C34         0.1670    1.9610    1.5960 c3        1 MOL     -0.111652
    107 C35        -1.0450    1.9190    0.6900 c         1 MOL      0.783638
    108 O17        -1.2320    1.0170   -0.1750 o         1 MOL     -0.737263
    109 O18        -1.8960    2.7680    0.8660 o         1 MOL     -0.737263
    110 H47         2.8410    1.0630    2.6200 hn        1 MOL      0.286743
    111 H48         0.9750    0.4030    0.2960 h1        1 MOL      0.002268
    112 H49         0.5220    2.9740    1.7830 hc        1 MOL     -0.004636
    113 H50        -0.0910    1.3990    2.5000 hc        1 MOL     -0.004636
    114 N11         3.5930    1.8380    0.0360 n         1 MOL     -0.647698
    115 C36         4.4180    2.5190   -0.9330 c3        1 MOL      0.568214
    116 C37         4.4120    4.0220   -0.6350 c         1 MOL      0.083342
    117 O19         4.5390    4.4470    0.5340 o         1 MOL     -0.484227
    118 C38         5.8040    1.8490   -0.9090 c3        1 MOL     -0.313860
    119 C39         5.7600    0.3940   -1.3690 ca        1 MOL      0.057382
    120 C40         5.4560    0.0810   -2.6720 ca        1 MOL     -0.110976
    121 C41         6.0900   -0.6270   -0.4450 ca        1 MOL     -0.110976
    122 C42         5.5750   -1.1740   -3.1520 ca        1 MOL     -0.140631
    123 C43         6.1520   -1.9730   -0.8470 ca        1 MOL     -0.140631
    124 C44         5.9000   -2.2050   -2.2470 ca        1 MOL     -0.082112
    125 H51         3.9510    1.3030    0.8090 hn        1 MOL      0.321826
    126 H52         4.0110    2.4610   -1.9360 h1        1 MOL     -0.056592
    127 H53         6.2690    1.9060    0.0760 hc        1 MOL      0.106769
    128 H54         6.4940    2.4190   -1.5380 hc        1 MOL      0.106769
    129 H55         5.2380    0.8840   -3.3560 ha        1 MOL      0.094173
    130 H56         6.2800   -0.3270    0.5690 ha        1 MOL      0.094173
    131 H57         5.2990   -1.4750   -4.1520 ha        1 MOL      0.094447
    132 H58         6.4760   -2.7350   -0.1510 ha        1 MOL      0.094447
    133 H59         5.8020   -3.1620   -2.7310 ha        1 MOL      0.085049
    134 N12         4.3720    4.8450   -1.6820 n         1 MOL      0.077142
    135 C45         4.5150    6.3220   -1.6590 c3        1 MOL      0.013752
    136 C46         3.5080    7.0150   -0.7200 c         1 MOL      0.359014
    137 O20         3.8620    7.8260    0.1270 o         1 MOL     -0.502705
    138 C47         4.3960    6.7440   -3.0710 c3        1 MOL      0.179474
    139 C48         5.0280    5.6010   -3.8960 c3        1 MOL     -0.201180
    140 C49         4.4820    4.4710   -3.0640 c3        1 MOL     -0.116986
    141 H60         5.4790    6.6380   -1.2680 h1        1 MOL      0.046347
    142 H61         3.3590    6.8340   -3.3870 hc        1 MOL     -0.024356
    143 H62         4.9340    7.6750   -3.2570 hc        1 MOL     -0.024356
    144 H63         4.5560    5.6980   -4.8760 hc        1 MOL      0.070016
    145 H64         6.1100    5.7110   -3.8620 hc        1 MOL      0.070016
    146 H65         3.4310    4.3360   -3.3280 h1        1 MOL      0.065529
    147 H66         5.0140    3.5260   -3.1930 h1        1 MOL      0.065529
    148 N13         2.2880    6.5230   -0.8350 n         1 MOL     -0.421779
    149 C50         1.0980    6.8520    0.0650 c3        1 MOL     -0.021612
    150 C51         1.4750    6.6600    1.5530 c         1 MOL      0.448435
    151 O21         0.9000    7.3610    2.3640 o         1 MOL     -0.559053
    152 C52        -0.0810    5.8940   -0.3410 c3        1 MOL      0.047118
    153 C53        -0.6980    5.8460   -1.7560 c3        1 MOL     -0.144965
    154 C54        -1.7370    4.7170   -1.8200 c         1 MOL      0.659497
    155 O22        -1.5600    3.6930   -2.5770 o         1 MOL     -0.702663
    156 O23        -2.8390    4.7700   -1.1770 o         1 MOL     -0.702663
    157 H67         2.0120    5.8890   -1.5650 hn        1 MOL      0.345695
    158 H68         0.7890    7.8990    0.0270 h1        1 MOL      0.094778
    159 H69        -0.9310    6.0980    0.3110 hc        1 MOL      0.025152
    160 H70         0.1710    4.8580   -0.1620 hc        1 MOL      0.025152
    161 H71         0.0990    5.6890   -2.4900 hc        1 MOL     -0.000597
    162 H72        -1.1250    6.8400   -1.8750 hc        1 MOL     -0.000597
    163 N14         2.3350    5.7080    1.9600 n         1 MOL     -0.032534
    164 C55         2.6500    5.6240    3.4310 c3        1 MOL     -0.403587
    165 H73         2.8510    6.6230    3.8170 h1        1 MOL      0.129247
    166 H74         1.8010    5.1940    3.9620 h1        1 MOL      0.129247
    167 H75         3.5280    4.9950    3.5800 h1        1 MOL      0.129247
    168 H76         2.8110    5.1090    1.3130 hn        1 MOL      0.193178
    169 Ca1        -3.4320    2.2620   -1.1700 Ca        1 MOL      1.759622
    170 O24        -3.9290    0.2520    0.5790 oh        1 MOL     -0.783527
    171 H77        -3.3370   -0.3850    0.9730 ho        1 MOL      0.373405
    172 H78        -4.7910   -0.1550    0.6220 ho        1 MOL      0.373405
    173 O25        -4.0850    2.7330   -4.0150 oh        1 MOL     -0.783527
    174 H79        -3.8010    1.8360   -4.2190 ho        1 MOL      0.373405
    175 H80        -4.6740    2.9600   -4.7350 ho        1 MOL      0.373405
    176 O26        -5.5340    4.0660   -1.7680 oh        1 MOL     -0.783527
    177 H81        -6.1080    4.0080   -2.5250 ho        1 MOL      0.373405
    178 H82        -6.0930    4.4240   -1.0740 ho        1 MOL      0.373405
    179 O27        -5.3310    2.9750    1.0250 oh        1 MOL     -0.783527
    180 H83        -6.2450    2.7520    0.8480 ho        1 MOL      0.373405
    181 H84        -5.3770    3.8180    1.4750 ho        1 MOL      0.373405
    182 O28        -5.9180    0.9250   -1.3810 oh        1 MOL     -0.783527
    183 H85        -6.5060    0.6840   -0.6610 ho        1 MOL      0.373405
    184 H86        -6.3300    0.5370   -2.1510 ho        1 MOL      0.373405
@<TRIPOS>BOND
     1    1    2 1   
     2    1    4 1   
     3    1    5 1   
     4    1    6 1   
     5    2    3 2   
     6    2    7 1   
     7    7    8 1   
     8    7   15 1   
     9    8    9 1   
    10    8   11 1   
    11    8   16 1   
    12    9   10 2   
    13    9   19 1   
    14   11   12 1   
    15   11   17 1   
    16   11   18 1   
    17   12   13 1   
    18   12   14 1   
    19   19   20 1   
    20   19   24 1   
    21   20   21 1   
    22   20   23 1   
    23   20   25 1   
    24   21   22 2   
    25   21   29 1   
    26   23   26 1   
    27   23   27 1   
    28   23   28 1   
    29   29   30 1   
    30   29   37 1   
    31   30   31 1   
    32   30   33 1   
    33   30   38 1   
    34   31   32 2   
    35   31   41 1   
    36   33   34 1   
    37   33   39 1   
    38   33   40 1   
    39   34   35 1   
    40   34   36 1   
    41   41   42 1   
    42   41   45 1   
    43   42   43 1   
    44   42   46 1   
    45   42   47 1   
    46   43   44 2   
    47   43   48 1   
    48   48   49 1   
    49   48   56 1   
    50   49   50 1   
    51   49   52 1   
    52   49   57 1   
    53   50   51 2   
    54   50   62 1   
    55   52   53 1   
    56   52   58 1   
    57   52   59 1   
    58   53   54 1   
    59   53   55 2   
    60   54   60 1   
    61   54   61 1   
    62   62   63 1   
    63   62   66 1   
    64   63   64 1   
    65   63   67 1   
    66   63   68 1   
    67   64   65 2   
    68   64   69 1   
    69   69   70 1   
    70   69   76 1   
    71   70   71 1   
    72   70   73 1   
    73   70   77 1   
    74   71   72 2   
    75   71   83 1   
    76   73   74 1   
    77   73   75 1   
    78   73   78 1   
    79   74   80 1   
    80   74   81 1   
    81   74   82 1   
    82   75   79 1   
    83   83   84 1   
    84   83   91 1   
    85   84   85 1   
    86   84   87 1   
    87   84   92 1   
    88   85   86 2   
    89   85  102 1   
    90   87   88 1   
    91   87   89 1   
    92   87   93 1   
    93   88   90 1   
    94   88   94 1   
    95   88   95 1   
    96   89   96 1   
    97   89   97 1   
    98   89   98 1   
    99   90   99 1   
   100   90  100 1   
   101   90  101 1   
   102  102  103 1   
   103  102  110 1   
   104  103  104 1   
   105  103  106 1   
   106  103  111 1   
   107  104  105 2   
   108  104  114 1   
   109  106  107 1   
   110  106  112 1   
   111  106  113 1   
   112  107  108 1   
   113  107  109 1   
   114  114  115 1   
   115  114  125 1   
   116  115  116 1   
   117  115  118 1   
   118  115  126 1   
   119  116  117 2   
   120  116  134 1   
   121  118  119 1   
   122  118  127 1   
   123  118  128 1   
   124  119  120 ar  
   125  119  121 ar  
   126  120  122 ar  
   127  120  129 1   
   128  121  123 ar  
   129  121  130 1   
   130  122  124 ar  
   131  122  131 1   
   132  123  124 ar  
   133  123  132 1   
   134  124  133 1   
   135  134  135 1   
   136  134  140 1   
   137  135  136 1   
   138  135  138 1   
   139  135  141 1   
   140  136  137 2   
   141  136  148 1   
   142  138  139 1   
   143  138  142 1   
   144  138  143 1   
   145  139  140 1   
   146  139  144 1   
   147  139  145 1   
   148  140  146 1   
   149  140  147 1   
   150  148  149 1   
   151  148  157 1   
   152  149  150 1   
   153  149  152 1   
   154  149  158 1   
   155  150  151 2   
   156  150  163 1   
   157  152  153 1   
   158  152  159 1   
   159  152  160 1   
   160  153  154 1   
   161  153  161 1   
   162  153  162 1   
   163  154  155 1   
   164  154  156 1   
   165  163  164 1   
   166  163  168 1   
   167  164  165 1   
   168  164  166 1   
   169  164  167 1   
   170  170  171 1   
   171  170  172 1   
   172  173  174 1   
   173  173  175 1   
   174  176  177 1   
   175  176  178 1   
   176  179  180 1   
   177  179  181 1   
   178  182  183 1   
   179  182  184 1   
@<TRIPOS>SUBSTRUCTURE
     1 MOL         1 TEMP              0 ****  ****    0 ROOT
