@<TRIPOS>MOLECULE
MOL
  188   182     1     0     0
SMALL
resp


@<TRIPOS>ATOM
      1 C1         -3.8380    1.3630   -3.2440 c3        1 MOL     -0.577566
      2 C2         -4.4700    1.4460   -1.8430 c         1 MOL      0.610853
      3 O1         -3.8210    0.8890   -0.8960 o         1 MOL     -0.450055
      4 H1         -2.7550    1.4550   -3.1590 hc        1 MOL      0.156914
      5 H2         -4.0860    0.4050   -3.6990 hc        1 MOL      0.156914
      6 H3         -4.2230    2.1710   -3.8660 hc        1 MOL      0.156914
      7 N1         -5.7330    1.8130   -1.7510 n         1 MOL     -0.663135
      8 C3         -6.6170    1.8440   -0.5580 c3        1 MOL      0.027424
      9 C4         -6.9740    0.4300   -0.0880 c         1 MOL      0.529949
     10 O2         -6.9410    0.1020    1.1250 o         1 MOL     -0.489298
     11 C5         -6.0720    2.7070    0.5160 c3        1 MOL     -0.112087
     12 C6         -5.7770    4.1790    0.0270 c         1 MOL      0.675949
     13 O3         -5.7330    5.1400    0.8190 o         1 MOL     -0.631596
     14 O4         -5.6960    4.5180   -1.1770 o         1 MOL     -0.631596
     15 H4         -6.2160    2.1080   -2.5890 hn        1 MOL      0.355586
     16 H5         -7.5550    2.3340   -0.7920 h1        1 MOL      0.088417
     17 H6         -5.1410    2.2880    0.9070 hc        1 MOL      0.048164
     18 H7         -6.7830    2.7380    1.3420 hc        1 MOL      0.048164
     19 N2         -7.1490   -0.5040   -1.0520 n         1 MOL     -0.570729
     20 C7         -7.4590   -1.8610   -0.6620 c3        1 MOL     -0.030420
     21 C8         -6.1650   -2.7840   -0.4010 c         1 MOL      0.509840
     22 O5         -6.3920   -3.9010    0.0850 o         1 MOL     -0.546922
     23 C9         -8.1790   -2.5990   -1.8150 c3        1 MOL     -0.052349
     24 C10        -9.5950   -1.9390   -1.9830 c3        1 MOL      0.083551
     25 C11       -10.3350   -2.6470   -3.1650 c3        1 MOL     -0.057459
     26 C12       -11.8140   -2.0760   -3.2460 c3        1 MOL      0.121766
     27 N3        -12.3260   -2.4060   -4.5920 n4        1 MOL     -0.305061
     28 H8         -7.1330   -0.2630   -2.0340 hn        1 MOL      0.349614
     29 H9         -8.0490   -1.9220    0.2550 h1        1 MOL      0.148494
     30 H10        -8.3540   -3.6520   -1.6160 hc        1 MOL      0.037944
     31 H11        -7.5210   -2.5360   -2.6790 hc        1 MOL      0.037944
     32 H12        -9.5110   -0.8980   -2.3190 hc        1 MOL     -0.000363
     33 H13       -10.1070   -2.0600   -1.0340 hc        1 MOL     -0.000363
     34 H14       -10.3540   -3.7170   -2.9950 hc        1 MOL      0.028296
     35 H15        -9.8040   -2.4180   -4.0900 hc        1 MOL      0.028296
     36 H16       -11.8180   -1.0320   -2.9310 hx        1 MOL      0.052705
     37 H17       -12.4980   -2.5370   -2.5300 hx        1 MOL      0.052705
     38 H18       -11.9180   -1.8330   -5.3100 hn        1 MOL      0.254218
     39 H19       -12.1910   -3.3870   -4.8000 hn        1 MOL      0.254218
     40 H20       -13.3200   -2.2270   -4.5170 hn        1 MOL      0.254218
     41 N4         -4.8970   -2.3500   -0.6240 n         1 MOL     -0.320173
     42 C13        -3.7660   -3.0530   -0.1440 c3        1 MOL     -0.071966
     43 C14        -3.6760   -3.1490    1.3960 c         1 MOL      0.513270
     44 O6         -4.1930   -2.2340    2.0230 o         1 MOL     -0.421018
     45 C15        -2.5770   -2.3500   -0.7600 c3        1 MOL     -0.050899
     46 C16        -1.1810   -2.9410   -0.5520 c         1 MOL      0.576220
     47 O7         -0.1830   -2.1980   -0.7770 o         1 MOL     -0.685609
     48 O8         -1.0720   -4.1050   -0.0630 o         1 MOL     -0.685609
     49 H21        -4.8020   -1.3840   -0.9060 hn        1 MOL      0.241473
     50 H22        -3.7900   -4.0310   -0.6080 h1        1 MOL      0.049195
     51 H23        -2.5060   -1.3240   -0.3980 hc        1 MOL      0.052561
     52 H24        -2.7280   -2.1660   -1.8170 hc        1 MOL      0.052561
     53 N5         -3.0640   -4.1900    1.9490 n         1 MOL     -0.288599
     54 C17        -3.1120   -4.4950    3.4050 c3        1 MOL     -0.240540
     55 C18        -2.4680   -3.4160    4.2950 c         1 MOL      0.490365
     56 O9         -2.9780   -3.1620    5.3540 o         1 MOL     -0.517549
     57 H25        -2.6830   -4.8530    1.2890 hn        1 MOL      0.259610
     58 H26        -2.5960   -5.4290    3.5990 h1        1 MOL      0.137954
     59 H27        -4.1690   -4.5740    3.6820 h1        1 MOL      0.137954
     60 N6         -1.4820   -2.6270    3.8580 n         1 MOL     -0.307713
     61 C19        -1.0450   -1.3780    4.5710 c3        1 MOL     -0.095954
     62 C20        -1.8890   -0.1390    4.4220 c         1 MOL      0.572668
     63 O10        -1.7240    0.7430    5.2620 o         1 MOL     -0.550659
     64 C21         0.4520   -1.1340    4.1660 c3        1 MOL     -0.233737
     65 C22         0.6750   -1.1390    2.6710 c         1 MOL      0.509211
     66 N7          0.5670    0.0230    1.9960 n         1 MOL     -0.481247
     67 O11         1.0020   -2.1540    2.0650 o         1 MOL     -0.546459
     68 H28        -1.1070   -2.9190    2.9610 hn        1 MOL      0.209322
     69 H29        -1.1080   -1.5090    5.6450 h1        1 MOL      0.144682
     70 H30         1.1380   -1.8900    4.5590 hc        1 MOL      0.095154
     71 H31         0.8300   -0.2220    4.6300 hc        1 MOL      0.095154
     72 H32         0.3990    0.8800    2.5030 hn        1 MOL      0.274672
     73 H33         0.4760    0.0140    0.9920 hn        1 MOL      0.274672
     74 N8         -2.7960    0.0030    3.4410 n         1 MOL     -0.229515
     75 C23        -3.5810    1.2080    3.1770 c3        1 MOL     -0.142790
     76 C24        -2.7570    2.3460    2.6200 c         1 MOL      0.404442
     77 O12        -2.6340    3.4180    3.2340 o         1 MOL     -0.528228
     78 H34        -3.0360   -0.7550    2.8190 hn        1 MOL      0.164976
     79 H35        -4.0430    1.4470    4.1400 h1        1 MOL      0.113139
     80 H36        -4.3490    0.9570    2.4410 h1        1 MOL      0.113139
     81 N9         -2.3060    2.2520    1.4030 n         1 MOL     -0.161931
     82 C25        -1.3890    3.2030    0.7380 c3        1 MOL      0.092655
     83 C26        -0.2300    2.5720   -0.0190 c         1 MOL      0.359969
     84 O13        -0.4080    1.4150   -0.4820 o         1 MOL     -0.488700
     85 C27        -2.2110    4.0910   -0.2210 c3        1 MOL     -0.099224
     86 C28        -1.6680    5.4840   -0.4930 ca        1 MOL      0.109650
     87 C29        -1.1450    6.3530    0.5140 ca        1 MOL     -0.147852
     88 C30        -1.7330    5.8840   -1.8500 ca        1 MOL     -0.147852
     89 C31        -0.7140    7.6640    0.1190 ca        1 MOL     -0.253779
     90 C32        -1.3480    7.1860   -2.2320 ca        1 MOL     -0.253779
     91 C33        -0.8050    8.0670   -1.2250 ca        1 MOL      0.313644
     92 O14        -0.2030    9.2510   -1.5870 oh        1 MOL     -0.490180
     93 H37        -2.5160    1.3580    0.9750 hn        1 MOL      0.187495
     94 H38        -0.9370    3.7910    1.5250 h1        1 MOL      0.003961
     95 H39        -3.1750    4.2300    0.2590 hc        1 MOL      0.092963
     96 H40        -2.4590    3.4660   -1.0660 hc        1 MOL      0.092963
     97 H41        -1.2330    6.0690    1.5450 ha        1 MOL      0.145391
     98 H42        -2.0860    5.2040   -2.6060 ha        1 MOL      0.145391
     99 H43        -0.2240    8.3570    0.7870 ha        1 MOL      0.146049
    100 H44        -1.4300    7.5260   -3.2520 ha        1 MOL      0.146049
    101 H45        -0.3800    9.3640   -2.5200 ho        1 MOL      0.357627
    102 N10         0.8860    3.2930   -0.1960 n         1 MOL     -0.299154
    103 C34         2.1070    2.8400   -0.8520 c3        1 MOL     -0.078650
    104 C35         3.2130    2.2690    0.0730 c         1 MOL      0.430115
    105 O15         3.7680    1.1750   -0.0760 o         1 MOL     -0.508018
    106 C36         2.6750    3.9700   -1.7590 c3        1 MOL      0.214326
    107 C37         1.5330    4.6770   -2.5500 c3        1 MOL      0.036438
    108 C38         3.7290    3.3640   -2.7010 c3        1 MOL     -0.145126
    109 C39         0.8920    3.7570   -3.6220 c3        1 MOL     -0.116489
    110 H46         0.9280    4.1740    0.2860 hn        1 MOL      0.211485
    111 H47         1.7700    2.0990   -1.5810 h1        1 MOL      0.120165
    112 H48         3.1850    4.7290   -1.1640 hc        1 MOL     -0.058036
    113 H49         2.0470    5.4630   -3.0970 hc        1 MOL     -0.038994
    114 H50         0.8150    5.1630   -1.8920 hc        1 MOL     -0.038994
    115 H51         4.6580    3.1480   -2.1640 hc        1 MOL      0.040556
    116 H52         3.3330    2.4490   -3.1420 hc        1 MOL      0.040556
    117 H53         4.1270    4.0570   -3.4410 hc        1 MOL      0.040556
    118 H54         0.6050    2.8550   -3.0820 hc        1 MOL      0.033345
    119 H55         0.0000    4.2490   -4.0190 hc        1 MOL      0.033345
    120 H56         1.6100    3.5260   -4.4210 hc        1 MOL      0.033345
    121 N11         3.4350    3.0080    1.1600 n         1 MOL     -0.224908
    122 C40         4.2330    2.6910    2.3230 c3        1 MOL     -0.284215
    123 C41         5.7100    2.4780    2.0090 c         1 MOL      0.812756
    124 O16         6.3510    1.6480    2.5790 o         1 MOL     -0.552058
    125 C42         4.0150    3.6540    3.4890 c3        1 MOL      0.134910
    126 O17         4.5250    4.9470    3.0980 oh        1 MOL     -0.631943
    127 H57         2.8170    3.7910    1.3290 hn        1 MOL      0.250875
    128 H58         3.8920    1.6910    2.5860 h1        1 MOL      0.097151
    129 H59         4.6540    3.3060    4.2890 h1        1 MOL      0.069418
    130 H60         3.0250    3.7140    3.9430 h1        1 MOL      0.069418
    131 H61         4.4020    5.5000    3.8730 ho        1 MOL      0.421643
    132 N12         6.2710    3.2630    1.0520 n         1 MOL     -0.538590
    133 C43         7.6550    3.0560    0.5350 c3        1 MOL      0.194276
    134 C44         7.9800    1.6200    0.0720 c         1 MOL      0.503817
    135 O18         9.1840    1.3390   -0.0980 o         1 MOL     -0.557481
    136 C45         8.7410    3.5710    1.5150 c3        1 MOL     -0.339390
    137 H62         5.7590    3.9500    0.5220 hn        1 MOL      0.297398
    138 H63         7.8080    3.5830   -0.4140 h1        1 MOL      0.053359
    139 H64         8.8280    2.9280    2.3870 hc        1 MOL      0.100950
    140 H65         9.7130    3.8270    1.0800 hc        1 MOL      0.100950
    141 H66         8.4560    4.5160    1.9850 hc        1 MOL      0.100950
    142 N13         6.9970    0.7390   -0.0840 n         1 MOL     -0.488250
    143 C46         7.2670   -0.7710   -0.1570 c3        1 MOL      0.365185
    144 C47         6.6280   -1.5410   -1.3050 c         1 MOL      0.343117
    145 O19         5.5530   -1.2670   -1.7430 o         1 MOL     -0.427799
    146 C48         6.6830   -1.4130    1.1710 c3        1 MOL     -0.111854
    147 H67         6.0160    0.9550   -0.0710 hn        1 MOL      0.199967
    148 H68         8.3360   -0.9530   -0.1980 h1        1 MOL      0.002396
    149 H69         7.1360   -2.3920    1.3270 hc        1 MOL      0.034376
    150 H70         6.9730   -0.8490    2.0590 hc        1 MOL      0.034376
    151 H71         5.6030   -1.5560    1.1240 hc        1 MOL      0.034376
    152 N14         7.2850   -2.5420   -1.8060 n         1 MOL     -0.521875
    153 C49         6.8300   -3.3140   -2.9510 c3        1 MOL     -0.060164
    154 C50         6.4430   -2.4520   -4.2030 c         1 MOL      0.459896
    155 O20         5.4830   -2.6520   -4.9510 o         1 MOL     -0.490283
    156 C51         5.6110   -4.2360   -2.5310 c3        1 MOL      0.272061
    157 C52         5.9460   -5.0890   -1.2890 c3        1 MOL     -0.087487
    158 C53         4.7570   -6.0170   -0.8290 c         1 MOL      0.680581
    159 O21         5.0140   -7.2390   -0.5980 o         1 MOL     -0.707769
    160 O22         3.6540   -5.4970   -0.7070 o         1 MOL     -0.707769
    161 H72         8.1990   -2.7690   -1.4380 hn        1 MOL      0.318777
    162 H73         7.5440   -3.9750   -3.4430 h1        1 MOL      0.083022
    163 H74         5.4600   -4.9260   -3.3600 hc        1 MOL     -0.042080
    164 H75         4.6890   -3.6650   -2.4950 hc        1 MOL     -0.042080
    165 H76         6.1890   -4.5000   -0.4090 hc        1 MOL     -0.019552
    166 H77         6.7930   -5.7440   -1.5190 hc        1 MOL     -0.019552
    167 N15         7.2460   -1.3700   -4.4770 n         1 MOL     -0.294738
    168 C54         7.0480   -0.4080   -5.5930 c3        1 MOL     -0.247318
    169 H78         6.0430    0.0100   -5.5380 h1        1 MOL      0.113872
    170 H79         7.7800    0.3960   -5.5150 h1        1 MOL      0.113872
    171 H80         7.1750   -0.9240   -6.5450 h1        1 MOL      0.113872
    172 H81         8.0300   -1.1450   -3.8930 hn        1 MOL      0.250230
    173 Ca1         1.5960   -3.8840    0.2340 Ca        1 MOL      1.795168
    174 O23         0.9040   -5.2830    2.4820 oh        1 MOL     -0.872331
    175 H82         1.1650   -5.1810    3.3980 ho        1 MOL      0.420033
    176 H83         0.6530   -6.2060    2.4050 ho        1 MOL      0.420033
    177 O24         1.2080   -6.4960   -0.2410 oh        1 MOL     -0.872331
    178 H84         1.9220   -6.8880   -0.7330 ho        1 MOL      0.420033
    179 H85         0.8830   -7.1950    0.3290 ho        1 MOL      0.420033
    180 O25         3.2390   -1.7180   -0.4510 oh        1 MOL     -0.872331
    181 H86         3.9420   -1.6930   -1.1060 ho        1 MOL      0.420033
    182 H87         3.2330   -0.8320   -0.0820 ho        1 MOL      0.420033
    183 O26         3.7910   -4.0940    1.9270 oh        1 MOL     -0.872331
    184 H88         4.5770   -4.6310    2.0390 ho        1 MOL      0.420033
    185 H89         3.7810   -3.5300    2.7110 ho        1 MOL      0.420033
    186 O27         1.9880   -3.8790   -2.4590 oh        1 MOL     -0.872331
    187 H90         1.5360   -4.5080   -3.0300 ho        1 MOL      0.420033
    188 H91         2.4130   -3.2680   -3.0650 ho        1 MOL      0.420033
@<TRIPOS>BOND
     1    1    2 1   
     2    1    4 1   
     3    1    5 1   
     4    1    6 1   
     5    2    3 2   
     6    2    7 1   
     7    7    8 1   
     8    7   15 1   
     9    8    9 1   
    10    8   11 1   
    11    8   16 1   
    12    9   10 2   
    13    9   19 1   
    14   11   12 1   
    15   11   17 1   
    16   11   18 1   
    17   12   13 1   
    18   12   14 1   
    19   19   20 1   
    20   19   28 1   
    21   20   21 1   
    22   20   23 1   
    23   20   29 1   
    24   21   22 2   
    25   21   41 1   
    26   23   24 1   
    27   23   30 1   
    28   23   31 1   
    29   24   25 1   
    30   24   32 1   
    31   24   33 1   
    32   25   26 1   
    33   25   34 1   
    34   25   35 1   
    35   26   27 1   
    36   26   36 1   
    37   26   37 1   
    38   27   38 1   
    39   27   39 1   
    40   27   40 1   
    41   41   42 1   
    42   41   49 1   
    43   42   43 1   
    44   42   45 1   
    45   42   50 1   
    46   43   44 2   
    47   43   53 1   
    48   45   46 1   
    49   45   51 1   
    50   45   52 1   
    51   46   47 1   
    52   46   48 1   
    53   53   54 1   
    54   53   57 1   
    55   54   55 1   
    56   54   58 1   
    57   54   59 1   
    58   55   56 2   
    59   55   60 1   
    60   60   61 1   
    61   60   68 1   
    62   61   62 1   
    63   61   64 1   
    64   61   69 1   
    65   62   63 2   
    66   62   74 1   
    67   64   65 1   
    68   64   70 1   
    69   64   71 1   
    70   65   66 1   
    71   65   67 2   
    72   66   72 1   
    73   66   73 1   
    74   74   75 1   
    75   74   78 1   
    76   75   76 1   
    77   75   79 1   
    78   75   80 1   
    79   76   77 2   
    80   76   81 1   
    81   81   82 1   
    82   81   93 1   
    83   82   83 1   
    84   82   85 1   
    85   82   94 1   
    86   83   84 2   
    87   83  102 1   
    88   85   86 1   
    89   85   95 1   
    90   85   96 1   
    91   86   87 ar  
    92   86   88 ar  
    93   87   89 ar  
    94   87   97 1   
    95   88   90 ar  
    96   88   98 1   
    97   89   91 ar  
    98   89   99 1   
    99   90   91 ar  
   100   90  100 1   
   101   91   92 1   
   102   92  101 1   
   103  102  103 1   
   104  102  110 1   
   105  103  104 1   
   106  103  106 1   
   107  103  111 1   
   108  104  105 2   
   109  104  121 1   
   110  106  107 1   
   111  106  108 1   
   112  106  112 1   
   113  107  109 1   
   114  107  113 1   
   115  107  114 1   
   116  108  115 1   
   117  108  116 1   
   118  108  117 1   
   119  109  118 1   
   120  109  119 1   
   121  109  120 1   
   122  121  122 1   
   123  121  127 1   
   124  122  123 1   
   125  122  125 1   
   126  122  128 1   
   127  123  124 2   
   128  123  132 1   
   129  125  126 1   
   130  125  129 1   
   131  125  130 1   
   132  126  131 1   
   133  132  133 1   
   134  132  137 1   
   135  133  134 1   
   136  133  136 1   
   137  133  138 1   
   138  134  135 2   
   139  134  142 1   
   140  136  139 1   
   141  136  140 1   
   142  136  141 1   
   143  142  143 1   
   144  142  147 1   
   145  143  144 1   
   146  143  146 1   
   147  143  148 1   
   148  144  145 2   
   149  144  152 1   
   150  146  149 1   
   151  146  150 1   
   152  146  151 1   
   153  152  153 1   
   154  152  161 1   
   155  153  154 1   
   156  153  156 1   
   157  153  162 1   
   158  154  155 2   
   159  154  167 1   
   160  156  157 1   
   161  156  163 1   
   162  156  164 1   
   163  157  158 1   
   164  157  165 1   
   165  157  166 1   
   166  158  159 1   
   167  158  160 1   
   168  167  168 1   
   169  167  172 1   
   170  168  169 1   
   171  168  170 1   
   172  168  171 1   
   173  174  175 1   
   174  174  176 1   
   175  177  178 1   
   176  177  179 1   
   177  180  181 1   
   178  180  182 1   
   179  183  184 1   
   180  183  185 1   
   181  186  187 1   
   182  186  188 1   
@<TRIPOS>SUBSTRUCTURE
     1 MOL         1 TEMP              0 ****  ****    0 ROOT
