@<TRIPOS>MOLECULE
MOL
  182   178     1     0     0
SMALL
resp


@<TRIPOS>ATOM
      1 C1         -0.2790   -3.7260    5.8530 c3        1 MOL     -0.446448
      2 C2         -0.1060   -3.6470    4.3430 c         1 MOL      0.780856
      3 O1         -0.9830   -3.8380    3.5690 o         1 MOL     -0.587006
      4 H1         -0.3710   -2.7200    6.2610 hc        1 MOL      0.122975
      5 H2         -1.1780   -4.2960    6.0880 hc        1 MOL      0.122975
      6 H3          0.5890   -4.2180    6.2940 hc        1 MOL      0.122975
      7 N1          1.1810   -3.3740    3.9250 n         1 MOL     -0.612827
      8 C3          1.6160   -3.0650    2.5990 c3        1 MOL     -0.148179
      9 C4          2.0480   -4.3260    1.8370 c         1 MOL      0.651445
     10 O2          2.9140   -5.0500    2.3250 o         1 MOL     -0.550666
     11 C5          2.7650   -2.0690    2.6860 c3        1 MOL     -0.019710
     12 C6          2.8620   -1.1850    1.4540 c         1 MOL      0.162647
     13 O3          3.6190   -0.1880    1.4690 o         1 MOL     -0.571338
     14 O4          2.3310   -1.4630    0.3750 o         1 MOL     -0.571338
     15 H4          1.9150   -3.3710    4.6180 hn        1 MOL      0.313036
     16 H5          0.7360   -2.6020    2.1740 h1        1 MOL      0.202990
     17 H6          3.7140   -2.5250    2.9760 hc        1 MOL      0.086682
     18 H7          2.5060   -1.4470    3.5400 hc        1 MOL      0.086682
     19 N2          1.6480   -4.4790    0.5770 n         1 MOL     -0.576177
     20 C7          2.0960   -5.4570   -0.4210 c3        1 MOL      0.176384
     21 C8          3.5840   -5.2960   -0.8200 c         1 MOL      0.351436
     22 O5          4.3540   -6.2180   -0.6210 o         1 MOL     -0.521165
     23 C9          1.2160   -5.4130   -1.7000 c3        1 MOL     -0.077241
     24 C10         1.5900   -6.3150   -2.8540 c3        1 MOL     -0.202294
     25 C11         1.4290   -7.8180   -2.6660 c3        1 MOL      0.225826
     26 C12        -0.0250   -8.2220   -2.2700 c3        1 MOL     -0.009308
     27 N3          0.0040   -9.6040   -1.8260 n4        1 MOL     -0.235113
     28 H8          0.9700   -3.7890    0.2830 hn        1 MOL      0.312255
     29 H9          2.0730   -6.4580    0.0130 h1        1 MOL      0.059053
     30 H10         1.3500   -4.3870   -2.0520 hc        1 MOL      0.038396
     31 H11         0.1660   -5.4480   -1.4270 hc        1 MOL      0.038396
     32 H12         2.6140   -6.0690   -3.1420 hc        1 MOL      0.061620
     33 H13         0.9520   -6.1710   -3.7160 hc        1 MOL      0.061620
     34 H14         2.0710   -8.1760   -1.8600 hc        1 MOL     -0.025225
     35 H15         1.6580   -8.3730   -3.5770 hc        1 MOL     -0.025225
     36 H16        -0.7500   -8.0560   -3.0690 hx        1 MOL      0.080409
     37 H17        -0.2850   -7.6850   -1.3570 hx        1 MOL      0.080409
     38 H18         0.5680   -9.7690   -1.0100 hn        1 MOL      0.239318
     39 H19        -0.8860   -9.8970   -1.4470 hn        1 MOL      0.239318
     40 H20         0.3470  -10.2410   -2.5240 hn        1 MOL      0.239318
     41 N4          4.0170   -4.2010   -1.4520 n         1 MOL     -0.129531
     42 C13         5.4010   -3.8700   -1.8520 c3        1 MOL      0.003705
     43 C14         6.2300   -3.1970   -0.7300 c         1 MOL      0.367938
     44 O6          7.4780   -3.1330   -0.8260 o         1 MOL     -0.553310
     45 C15         5.4300   -2.9010   -3.0410 c3        1 MOL     -0.485289
     46 C16         4.8170   -1.5280   -2.8760 c         1 MOL      0.747098
     47 O7          4.6220   -1.0790   -1.7510 o         1 MOL     -0.703147
     48 O8          4.5010   -0.8470   -3.8430 o         1 MOL     -0.703147
     49 H21         3.3330   -3.5260   -1.7440 hn        1 MOL      0.200121
     50 H22         5.8540   -4.8250   -2.1200 h1        1 MOL      0.103191
     51 H23         4.8520   -3.3420   -3.8480 hc        1 MOL      0.148439
     52 H24         6.4670   -2.8830   -3.3770 hc        1 MOL      0.148439
     53 N5          5.6540   -2.7800    0.3460 n         1 MOL     -0.020490
     54 C17         6.3300   -2.1390    1.4660 c3        1 MOL     -0.267324
     55 C18         6.9520   -0.7890    1.2820 c         1 MOL      0.631130
     56 O9          7.6500   -0.3420    2.1970 o         1 MOL     -0.578571
     57 H25         4.6820   -3.0060    0.4260 hn        1 MOL      0.187142
     58 H26         7.1990   -2.7270    1.7530 h1        1 MOL      0.111490
     59 H27         5.6790   -2.0890    2.3470 h1        1 MOL      0.111490
     60 N6          6.7320   -0.2230    0.1200 n         1 MOL     -0.219491
     61 C19         7.3190    1.0550   -0.1970 c3        1 MOL     -0.057004
     62 C20         6.2620    2.1780    0.0220 c         1 MOL      0.429864
     63 O10         5.0800    1.9710   -0.2770 o         1 MOL     -0.513190
     64 C21         7.7450    0.9820   -1.6790 c3        1 MOL     -0.241371
     65 C22         8.2920    2.2730   -2.2520 c         1 MOL      0.698450
     66 N7          8.2670    2.2990   -3.5440 n         1 MOL     -0.850893
     67 O11         8.8500    3.1660   -1.5990 o         1 MOL     -0.574380
     68 H28         6.0540   -0.6670   -0.4870 hn        1 MOL      0.246418
     69 H29         8.2270    1.3140    0.3370 h1        1 MOL      0.078216
     70 H30         6.8820    0.7030   -2.3000 hc        1 MOL      0.107529
     71 H31         8.5330    0.2350   -1.7910 hc        1 MOL      0.107529
     72 H32         7.8790    1.4970   -4.0190 hn        1 MOL      0.388620
     73 H33         8.7020    3.0510   -4.0650 hn        1 MOL      0.388620
     74 N8          6.6080    3.4340    0.4200 n         1 MOL     -0.274817
     75 C23         5.8120    4.6600    0.4610 c3        1 MOL     -0.182820
     76 C24         4.5290    4.4390    1.2900 c         1 MOL      0.623731
     77 O12         4.5770    4.0960    2.4810 o         1 MOL     -0.499148
     78 H34         7.6030    3.5540    0.5180 hn        1 MOL      0.278160
     79 H35         5.4220    4.7320   -0.5510 h1        1 MOL      0.097260
     80 H36         6.4360    5.4450    0.8970 h1        1 MOL      0.097260
     81 N9          3.4050    4.6250    0.6000 n         1 MOL     -0.595830
     82 C25         2.0220    4.5660    1.1570 c3        1 MOL      0.157597
     83 C26         1.6010    3.1490    1.6690 c         1 MOL      0.448289
     84 O13         2.3770    2.2580    1.3380 o         1 MOL     -0.404530
     85 C27         1.0800    5.1330    0.1280 c3        1 MOL     -0.277636
     86 C28         1.2380    6.5510   -0.3900 ca        1 MOL      0.152424
     87 C29         0.9390    7.6710    0.4610 ca        1 MOL     -0.209032
     88 C30         1.5450    6.8390   -1.7510 ca        1 MOL     -0.209032
     89 C31         1.0210    9.0070    0.0200 ca        1 MOL     -0.233220
     90 C32         1.5970    8.1640   -2.2240 ca        1 MOL     -0.233220
     91 C33         1.3220    9.2410   -1.3340 ca        1 MOL      0.311429
     92 O14         1.4020   10.4740   -1.9090 oh        1 MOL     -0.465239
     93 H37         3.4730    4.8720   -0.3800 hn        1 MOL      0.321222
     94 H38         1.9640    5.2210    2.0300 h1        1 MOL      0.063093
     95 H39         0.1810    5.1800    0.7490 hc        1 MOL      0.064378
     96 H40         0.9270    4.4020   -0.6670 hc        1 MOL      0.064378
     97 H41         0.5080    7.4790    1.4340 ha        1 MOL      0.146371
     98 H42         1.6630    5.9960   -2.4210 ha        1 MOL      0.146371
     99 H43         0.7570    9.8410    0.6520 ha        1 MOL      0.158166
    100 H44         1.8090    8.3470   -3.2710 ha        1 MOL      0.158166
    101 H45         1.1370   11.1220   -1.2560 ho        1 MOL      0.367995
    102 N10         0.4760    2.9470    2.3550 n         1 MOL     -0.485430
    103 C34        -0.2010    1.6470    2.6190 c3        1 MOL      0.083735
    104 C35        -0.4540    0.8470    1.3020 c         1 MOL      0.221197
    105 O15         0.4050    0.6120    0.4420 o         1 MOL     -0.245530
    106 C36         0.5160    0.9290    3.7690 c3        1 MOL      0.163670
    107 C37        -0.1990   -0.3290    4.1950 c3        1 MOL     -0.025914
    108 C38         0.7320    1.8950    5.0030 c3        1 MOL     -0.329832
    109 C39        -1.4780   -0.2800    5.0570 c3        1 MOL     -0.316265
    110 H46        -0.0710    3.7590    2.5930 hn        1 MOL      0.302051
    111 H47        -1.2050    1.7990    3.0310 h1        1 MOL      0.040201
    112 H48         1.5200    0.6750    3.4300 hc        1 MOL      0.062635
    113 H49         0.5290   -0.9360    4.7430 hc        1 MOL      0.033273
    114 H50        -0.4620   -0.9420    3.3360 hc        1 MOL      0.033273
    115 H51         1.1470    1.2790    5.8130 hc        1 MOL      0.095695
    116 H52         1.3810    2.7530    4.8230 hc        1 MOL      0.095695
    117 H53        -0.2170    2.2230    5.4340 hc        1 MOL      0.095695
    118 H54        -2.1510    0.4650    4.6440 hc        1 MOL      0.081068
    119 H55        -1.9890   -1.2220    4.8420 hc        1 MOL      0.081068
    120 H56        -1.2890   -0.1460    6.1240 hc        1 MOL      0.081068
    121 N11        -1.5710    0.1470    1.1710 n         1 MOL     -0.354301
    122 C40        -1.8990   -0.6860    0.0420 c3        1 MOL      0.038403
    123 C41        -3.3200   -0.6110   -0.4180 c         1 MOL      0.584062
    124 O16        -3.7120   -1.3130   -1.3380 o         1 MOL     -0.518799
    125 C42        -1.3660   -2.1370    0.3130 c3        1 MOL      0.186518
    126 O17        -0.1190   -2.2940   -0.2880 oh        1 MOL     -0.511268
    127 H57        -2.3110    0.2640    1.8540 hn        1 MOL      0.277061
    128 H58        -1.2560   -0.3900   -0.7970 h1        1 MOL      0.049792
    129 H59        -2.0390   -2.8490   -0.1490 h1        1 MOL      0.027120
    130 H60        -1.3090   -2.2610    1.3960 h1        1 MOL      0.027120
    131 H61         0.4460   -1.5190   -0.2200 ho        1 MOL      0.254321
    132 N12        -4.2250    0.1130    0.3370 n         1 MOL     -0.617610
    133 C43        -5.6700    0.0590    0.0690 c3        1 MOL      0.147766
    134 C44        -5.9050    0.8010   -1.2520 c         1 MOL      0.637824
    135 O18        -5.0850    1.5470   -1.7490 o         1 MOL     -0.549388
    136 C45        -6.3480    0.7020    1.3330 c3        1 MOL     -0.295221
    137 H62        -3.9470    0.6840    1.1290 hn        1 MOL      0.292481
    138 H63        -6.0450   -0.9520   -0.0250 h1        1 MOL      0.097529
    139 H64        -5.9960    1.7220    1.4690 hc        1 MOL      0.098619
    140 H65        -7.4370    0.6760    1.2950 hc        1 MOL      0.098619
    141 H66        -6.0630    0.1610    2.2350 hc        1 MOL      0.098619
    142 N13        -7.0870    0.6010   -1.9340 n         1 MOL     -0.665095
    143 C46        -8.2790   -0.0540   -1.5540 c3        1 MOL      0.390609
    144 C47        -9.5120    0.5800   -2.2570 c         1 MOL      0.494629
    145 O19        -9.4670    1.2440   -3.2620 o         1 MOL     -0.526298
    146 C48        -8.0280   -1.5380   -1.8620 c3        1 MOL     -0.244648
    147 H67        -7.1290    1.0930   -2.8220 hn        1 MOL      0.320273
    148 H68        -8.3850    0.0730   -0.4720 h1        1 MOL     -0.039099
    149 H69        -8.9820   -2.0290   -2.0370 hc        1 MOL      0.066520
    150 H70        -7.4610   -1.5930   -2.7980 hc        1 MOL      0.066520
    151 H71        -7.5060   -2.0780   -1.0820 hc        1 MOL      0.066520
    152 N14       -10.7190    0.5890   -1.6150 n         1 MOL     -0.579637
    153 C49       -11.0280    0.3380   -0.1880 c3        1 MOL     -0.070065
    154 C50       -10.5100    1.4080    0.7080 c         1 MOL      0.515688
    155 O20       -10.1990    1.0810    1.8200 o         1 MOL     -0.525946
    156 C51       -12.5370    0.0780    0.0130 c3        1 MOL     -0.039113
    157 C52       -13.1630   -0.8400   -1.1170 c3        1 MOL     -0.089496
    158 C53       -14.4780   -1.3050   -0.5920 c         1 MOL      0.689809
    159 O21       -14.6460   -2.5030   -0.2990 o         1 MOL     -0.658064
    160 O22       -15.4140   -0.4480   -0.6050 o         1 MOL     -0.658064
    161 H72       -11.4610    0.9080   -2.2170 hn        1 MOL      0.348090
    162 H73       -10.4730   -0.5680    0.0260 h1        1 MOL      0.113775
    163 H74       -13.1130    0.9830   -0.1770 hc        1 MOL      0.050013
    164 H75       -12.7300   -0.2370    1.0380 hc        1 MOL      0.050013
    165 H76       -12.5630   -1.7360   -1.3080 hc        1 MOL      0.008420
    166 H77       -13.3990   -0.3380   -2.0510 hc        1 MOL      0.008420
    167 N15       -10.1230    2.5810    0.1280 n         1 MOL     -0.332531
    168 C54        -9.4530    3.6470    0.8460 c3        1 MOL     -0.135028
    169 H78        -9.4040    3.3950    1.9060 h1        1 MOL      0.080534
    170 H79        -8.4430    3.7710    0.4550 h1        1 MOL      0.080534
    171 H80       -10.0080    4.5770    0.7200 h1        1 MOL      0.080534
    172 H81       -10.4420    2.7490   -0.8170 hn        1 MOL      0.286015
    173 Ca1         2.8710    0.6700   -0.8110 Ca        1 MOL      1.650567
    174 O23         1.0190    2.1470   -1.8120 oh        1 MOL     -0.823928
    175 H82         0.0880    2.2780   -1.6100 ho        1 MOL      0.412158
    176 H83         1.1510    2.6020   -2.6370 ho        1 MOL      0.412158
    177 O24         1.4530   -0.6400   -2.6090 oh        1 MOL     -0.823928
    178 H84         1.8600   -0.7560   -3.4750 ho        1 MOL      0.412158
    179 H85         0.5740   -1.0050   -2.7170 ho        1 MOL      0.412158
    180 O25         3.7050    2.1360   -2.9450 oh        1 MOL     -0.823928
    181 H86         3.8790    3.0580   -3.1300 ho        1 MOL      0.412158
    182 H87         4.5150    1.6780   -3.1740 ho        1 MOL      0.412158
@<TRIPOS>BOND
     1    1    2 1   
     2    1    4 1   
     3    1    5 1   
     4    1    6 1   
     5    2    3 2   
     6    2    7 1   
     7    7    8 1   
     8    7   15 1   
     9    8    9 1   
    10    8   11 1   
    11    8   16 1   
    12    9   10 2   
    13    9   19 1   
    14   11   12 1   
    15   11   17 1   
    16   11   18 1   
    17   12   13 1   
    18   12   14 1   
    19   19   20 1   
    20   19   28 1   
    21   20   21 1   
    22   20   23 1   
    23   20   29 1   
    24   21   22 2   
    25   21   41 1   
    26   23   24 1   
    27   23   30 1   
    28   23   31 1   
    29   24   25 1   
    30   24   32 1   
    31   24   33 1   
    32   25   26 1   
    33   25   34 1   
    34   25   35 1   
    35   26   27 1   
    36   26   36 1   
    37   26   37 1   
    38   27   38 1   
    39   27   39 1   
    40   27   40 1   
    41   41   42 1   
    42   41   49 1   
    43   42   43 1   
    44   42   45 1   
    45   42   50 1   
    46   43   44 2   
    47   43   53 1   
    48   45   46 1   
    49   45   51 1   
    50   45   52 1   
    51   46   47 1   
    52   46   48 1   
    53   53   54 1   
    54   53   57 1   
    55   54   55 1   
    56   54   58 1   
    57   54   59 1   
    58   55   56 2   
    59   55   60 1   
    60   60   61 1   
    61   60   68 1   
    62   61   62 1   
    63   61   64 1   
    64   61   69 1   
    65   62   63 2   
    66   62   74 1   
    67   64   65 1   
    68   64   70 1   
    69   64   71 1   
    70   65   66 1   
    71   65   67 2   
    72   66   72 1   
    73   66   73 1   
    74   74   75 1   
    75   74   78 1   
    76   75   76 1   
    77   75   79 1   
    78   75   80 1   
    79   76   77 2   
    80   76   81 1   
    81   81   82 1   
    82   81   93 1   
    83   82   83 1   
    84   82   85 1   
    85   82   94 1   
    86   83   84 2   
    87   83  102 1   
    88   85   86 1   
    89   85   95 1   
    90   85   96 1   
    91   86   87 ar  
    92   86   88 ar  
    93   87   89 ar  
    94   87   97 1   
    95   88   90 ar  
    96   88   98 1   
    97   89   91 ar  
    98   89   99 1   
    99   90   91 ar  
   100   90  100 1   
   101   91   92 1   
   102   92  101 1   
   103  102  103 1   
   104  102  110 1   
   105  103  104 1   
   106  103  106 1   
   107  103  111 1   
   108  104  105 2   
   109  104  121 1   
   110  106  107 1   
   111  106  108 1   
   112  106  112 1   
   113  107  109 1   
   114  107  113 1   
   115  107  114 1   
   116  108  115 1   
   117  108  116 1   
   118  108  117 1   
   119  109  118 1   
   120  109  119 1   
   121  109  120 1   
   122  121  122 1   
   123  121  127 1   
   124  122  123 1   
   125  122  125 1   
   126  122  128 1   
   127  123  124 2   
   128  123  132 1   
   129  125  126 1   
   130  125  129 1   
   131  125  130 1   
   132  126  131 1   
   133  132  133 1   
   134  132  137 1   
   135  133  134 1   
   136  133  136 1   
   137  133  138 1   
   138  134  135 2   
   139  134  142 1   
   140  136  139 1   
   141  136  140 1   
   142  136  141 1   
   143  142  143 1   
   144  142  147 1   
   145  143  144 1   
   146  143  146 1   
   147  143  148 1   
   148  144  145 2   
   149  144  152 1   
   150  146  149 1   
   151  146  150 1   
   152  146  151 1   
   153  152  153 1   
   154  152  161 1   
   155  153  154 1   
   156  153  156 1   
   157  153  162 1   
   158  154  155 2   
   159  154  167 1   
   160  156  157 1   
   161  156  163 1   
   162  156  164 1   
   163  157  158 1   
   164  157  165 1   
   165  157  166 1   
   166  158  159 1   
   167  158  160 1   
   168  167  168 1   
   169  167  172 1   
   170  168  169 1   
   171  168  170 1   
   172  168  171 1   
   173  174  175 1   
   174  174  176 1   
   175  177  178 1   
   176  177  179 1   
   177  180  181 1   
   178  180  182 1   
@<TRIPOS>SUBSTRUCTURE
     1 MOL         1 TEMP              0 ****  ****    0 ROOT
