@<TRIPOS>MOLECULE
MOL
  189   185     1     0     0
SMALL
resp


@<TRIPOS>ATOM
      1 C1          4.8890    4.6330   -3.3440 c3        1 MOL     -0.417206
      2 C2          5.6280    3.8560   -2.2330 c         1 MOL      0.800912
      3 O1          4.9950    3.4650   -1.2100 o         1 MOL     -0.717994
      4 H1          5.6090    5.2160   -3.9200 hc        1 MOL      0.114308
      5 H2          4.3810    3.9300   -4.0040 hc        1 MOL      0.114308
      6 H3          4.1570    5.3040   -2.8940 hc        1 MOL      0.114308
      7 N1          6.8850    3.3490   -2.4790 n         1 MOL     -0.735474
      8 C3          7.4900    2.1800   -1.7800 c3        1 MOL      0.304475
      9 C4          6.5460    0.9400   -1.7260 c         1 MOL      0.315034
     10 O2          6.0130    0.6250   -0.6780 o         1 MOL     -0.455052
     11 C5          8.1800    2.4890   -0.4210 c3        1 MOL     -0.134382
     12 C6          7.5790    3.5390    0.5900 c         1 MOL      0.730338
     13 O3          6.5330    3.2520    1.2240 o         1 MOL     -0.711840
     14 O4          8.3330    4.4720    0.9090 o         1 MOL     -0.711840
     15 H4          7.3050    3.6550   -3.3520 hn        1 MOL      0.339079
     16 H5          8.3740    1.8280   -2.3070 h1        1 MOL      0.016741
     17 H6          9.1400    2.9370   -0.6730 hc        1 MOL      0.021557
     18 H7          8.4480    1.5990    0.1410 hc        1 MOL      0.021557
     19 N2          6.2250    0.3130   -2.8560 n         1 MOL     -0.540522
     20 C7          5.2740   -0.8500   -2.9390 c3        1 MOL      0.211428
     21 C8          5.8670   -2.1140   -2.3160 c         1 MOL      0.359657
     22 O5          5.8970   -3.1330   -2.9930 o         1 MOL     -0.554134
     23 C9          3.8260   -0.4940   -2.6010 c3        1 MOL      0.433460
     24 C10         2.7040   -1.4560   -3.0270 c3        1 MOL     -0.147748
     25 C11         3.4190    0.8700   -3.1040 c3        1 MOL     -0.067160
     26 C12         2.6540   -1.8620   -4.5190 c3        1 MOL     -0.504602
     27 H8          6.4510    0.7740   -3.7310 hn        1 MOL      0.286132
     28 H9          5.1420   -1.0450   -4.0050 h1        1 MOL     -0.013774
     29 H10         3.6610   -0.3960   -1.5320 hc        1 MOL     -0.162116
     30 H11         1.7340   -1.0240   -2.8260 hc        1 MOL      0.132139
     31 H12         2.9840   -2.4150   -2.5950 hc        1 MOL      0.132139
     32 H13         2.4350    1.2030   -2.7740 hc        1 MOL     -0.015049
     33 H14         4.0420    1.6010   -2.5970 hc        1 MOL     -0.015049
     34 H15         3.5970    0.9560   -4.1830 hc        1 MOL     -0.015049
     35 H16         3.6530   -2.2180   -4.8030 hc        1 MOL      0.118003
     36 H17         2.0560   -2.7690   -4.5450 hc        1 MOL      0.118003
     37 H18         2.2750   -1.0190   -5.1030 hc        1 MOL      0.118003
     38 N3          6.1370   -2.1960   -1.0060 n         1 MOL     -0.243168
     39 C13         6.7160   -3.3120   -0.2670 c3        1 MOL      0.088558
     40 C14         5.9120   -4.4990   -0.2930 c         1 MOL      0.552848
     41 O6          6.4820   -5.6070   -0.4820 o         1 MOL     -0.560348
     42 C15         7.1420   -2.8860    1.1300 c3        1 MOL     -0.177532
     43 C16         8.3730   -3.6640    1.6510 c         1 MOL      0.658768
     44 O7          8.2970   -4.6370    2.4840 o         1 MOL     -0.709651
     45 O8          9.3700   -3.2780    1.0670 o         1 MOL     -0.709651
     46 H19         6.1140   -1.3180   -0.5180 hn        1 MOL      0.266591
     47 H20         7.6110   -3.6060   -0.8250 h1        1 MOL      0.065233
     48 H21         6.3400   -3.0620    1.8370 hc        1 MOL      0.026646
     49 H22         7.2810   -1.8030    1.0470 hc        1 MOL      0.026646
     50 N4          4.5650   -4.4480   -0.1690 n         1 MOL     -0.541390
     51 C17         3.7910   -3.3330    0.3180 c3        1 MOL      0.259106
     52 C18         2.6330   -3.9680    1.1360 c         1 MOL      0.498088
     53 O9          2.2540   -5.1420    0.9700 o         1 MOL     -0.565860
     54 H23         4.0880   -5.3360   -0.2590 hn        1 MOL      0.284685
     55 H24         3.3780   -2.6640   -0.4320 h1        1 MOL      0.003690
     56 H25         4.3430   -2.6700    0.9830 h1        1 MOL      0.003690
     57 N5          2.0140   -3.3340    2.1870 n         1 MOL     -0.498119
     58 C19         2.3100   -1.9570    2.6360 c3        1 MOL      0.445332
     59 C20         2.4530   -0.9370    1.4740 c         1 MOL      0.125390
     60 O10         3.5120   -0.4220    1.1680 o         1 MOL     -0.610906
     61 C21         3.4870   -2.0000    3.5550 c3        1 MOL     -0.493391
     62 C22         3.7020   -0.7410    4.3440 c         1 MOL      0.898812
     63 O11         4.8720   -0.4280    4.6620 o         1 MOL     -0.738338
     64 O12         2.7710   -0.0360    4.7060 o         1 MOL     -0.738338
     65 H26         1.3060   -3.8430    2.7040 hn        1 MOL      0.260783
     66 H27         1.3720   -1.6640    3.1080 h1        1 MOL     -0.011748
     67 H28         4.3830   -2.2490    2.9910 hc        1 MOL      0.108099
     68 H29         3.3120   -2.7620    4.3140 hc        1 MOL      0.108099
     69 N6          1.3520   -0.5610    0.8090 n         1 MOL     -0.026642
     70 C23        -0.0270   -1.0610    0.9230 c3        1 MOL     -0.186994
     71 C24        -0.3300   -2.3410    0.0600 c         1 MOL      0.573888
     72 O13         0.5350   -2.6520   -0.8430 o         1 MOL     -0.525771
     73 H30         1.5670    0.1430    0.1050 hn        1 MOL      0.113965
     74 H31        -0.7240   -0.3280    0.5050 h1        1 MOL      0.080210
     75 H32        -0.3800   -1.2000    1.9460 h1        1 MOL      0.080210
     76 N7         -1.2720   -3.1520    0.5490 n         1 MOL     -0.464033
     77 C25        -1.7430   -4.3050   -0.0860 c3        1 MOL     -0.030660
     78 C26        -2.4290   -4.1340   -1.4750 c         1 MOL      0.466387
     79 O14        -2.4450   -5.0520   -2.2550 o         1 MOL     -0.515268
     80 C27        -2.7380   -4.9750    0.9340 c3        1 MOL     -0.016646
     81 C28        -2.0490   -5.6510    2.1060 c3        1 MOL     -0.142343
     82 C29        -2.9680   -6.4120    3.0770 c         1 MOL      0.691896
     83 N8         -2.4690   -7.2700    3.8360 n         1 MOL     -0.777713
     84 O15        -4.1570   -6.1390    3.1040 o         1 MOL     -0.595758
     85 H33        -1.6660   -2.9120    1.4520 hn        1 MOL      0.303420
     86 H34        -0.9060   -4.9590   -0.3420 h1        1 MOL      0.134406
     87 H35        -3.3990   -5.6560    0.3960 hc        1 MOL      0.034198
     88 H36        -3.4230   -4.2040    1.2950 hc        1 MOL      0.034198
     89 H37        -1.5140   -4.9100    2.6950 hc        1 MOL      0.049917
     90 H38        -1.3790   -6.4470    1.7590 hc        1 MOL      0.049917
     91 H39        -1.5410   -7.6230    3.6480 hn        1 MOL      0.361970
     92 H40        -3.1140   -7.7530    4.4560 hn        1 MOL      0.361970
     93 N9         -2.8780   -2.9460   -1.7680 n         1 MOL     -0.317137
     94 C30        -3.3870   -2.5030   -3.1490 c3        1 MOL     -0.072685
     95 C31        -4.8180   -2.1410   -3.2280 c         1 MOL      0.570837
     96 O16        -5.3910   -2.0390   -4.3520 o         1 MOL     -0.553423
     97 C32        -2.5500   -1.3680   -3.7430 c3        1 MOL      0.078921
     98 C33        -1.1740   -1.8690   -4.0820 c3        1 MOL     -0.054446
     99 C34        -2.4330   -0.1400   -2.7940 c3        1 MOL     -0.054446
    100 H41        -2.9920   -2.3310   -0.9670 hn        1 MOL      0.214790
    101 H42        -3.1930   -3.2950   -3.8720 h1        1 MOL      0.113728
    102 H43        -3.0280   -1.0510   -4.6720 hc        1 MOL      0.020308
    103 H44        -0.5910   -2.2040   -3.2330 hc        1 MOL      0.009987
    104 H45        -1.1960   -2.5860   -4.9080 hc        1 MOL      0.009987
    105 H46        -0.5380   -1.1240   -4.5550 hc        1 MOL      0.009987
    106 H47        -2.1660    0.7720   -3.3360 hc        1 MOL      0.009987
    107 H48        -3.4020    0.0660   -2.3300 hc        1 MOL      0.009987
    108 H49        -1.6410   -0.1790   -2.0600 hc        1 MOL      0.009987
    109 N10        -5.4900   -1.8500   -2.0620 n         1 MOL     -0.403981
    110 C35        -6.8710   -1.2070   -1.9510 c3        1 MOL      0.023191
    111 C36        -7.0250    0.1540   -1.2200 c         1 MOL      0.564599
    112 O17        -8.0540    0.7710   -1.4020 o         1 MOL     -0.542573
    113 C37        -7.8270   -2.1880   -1.3420 c3        1 MOL     -0.529004
    114 C38        -7.9720   -3.5050   -2.0440 c         1 MOL      0.697211
    115 N11        -8.1790   -3.5230   -3.3510 n         1 MOL     -0.782658
    116 O18        -8.0060   -4.5860   -1.4430 o         1 MOL     -0.567436
    117 H50        -4.9960   -1.9450   -1.1900 hn        1 MOL      0.246647
    118 H51        -7.1590   -1.0700   -2.9960 h1        1 MOL      0.088787
    119 H52        -8.8380   -1.7810   -1.2420 hc        1 MOL      0.190322
    120 H53        -7.5950   -2.2710   -0.2800 hc        1 MOL      0.190322
    121 H54        -8.1540   -2.6250   -3.8290 hn        1 MOL      0.373990
    122 H55        -8.3260   -4.4100   -3.7910 hn        1 MOL      0.373990
    123 N12        -5.9960    0.6370   -0.4960 n         1 MOL     -0.440210
    124 C39        -6.1850    1.8940    0.3420 c3        1 MOL      0.246153
    125 C40        -4.8470    2.6020    0.6160 c         1 MOL      0.246534
    126 O19        -3.7550    2.0990    0.3550 o         1 MOL     -0.444966
    127 C41        -6.8270    1.5230    1.7470 c3        1 MOL     -0.184258
    128 C42        -8.1800    0.7720    1.7740 ca        1 MOL      0.000967
    129 C43        -9.3750    1.4680    1.4630 ca        1 MOL     -0.100764
    130 C44        -8.2300   -0.5940    2.0360 ca        1 MOL     -0.100764
    131 C45       -10.6180    0.7620    1.5730 ca        1 MOL     -0.275029
    132 C46        -9.4240   -1.2910    2.1480 ca        1 MOL     -0.275029
    133 C47       -10.5990   -0.5870    1.8790 ca        1 MOL      0.328689
    134 O20       -11.7700   -1.2880    1.9730 oh        1 MOL     -0.477169
    135 H56        -5.1230    0.1490   -0.5530 hn        1 MOL      0.271798
    136 H57        -6.8390    2.6180   -0.1530 h1        1 MOL      0.035815
    137 H58        -6.9760    2.4140    2.3550 hc        1 MOL      0.085869
    138 H59        -6.0690    0.9150    2.2300 hc        1 MOL      0.085869
    139 H60        -9.4450    2.5050    1.1570 ha        1 MOL      0.113368
    140 H61        -7.2810   -1.0800    2.2080 ha        1 MOL      0.113368
    141 H62       -11.5910    1.1890    1.3680 ha        1 MOL      0.148163
    142 H63        -9.4220   -2.3560    2.3110 ha        1 MOL      0.148163
    143 H64       -12.5100   -0.7850    1.6110 ho        1 MOL      0.334243
    144 N13        -4.9190    3.8710    1.1350 n         1 MOL     -0.410373
    145 C48        -3.8980    4.8330    1.4200 c3        1 MOL      0.051623
    146 C49        -2.9180    5.1740    0.3330 c         1 MOL      0.427317
    147 O21        -2.6730    6.3930    0.1540 o         1 MOL     -0.572115
    148 C50        -3.0710    4.3630    2.6390 c3        1 MOL      0.198734
    149 C51        -2.6180    5.5250    3.5350 c3        1 MOL     -0.380154
    150 C52        -2.0700    5.0970    4.9270 c         1 MOL      0.728816
    151 O22        -2.7470    5.1260    5.9650 o         1 MOL     -0.720296
    152 O23        -0.9070    4.6960    4.9500 o         1 MOL     -0.720296
    153 H65        -5.8800    4.1720    1.2270 hn        1 MOL      0.279598
    154 H66        -4.5030    5.7080    1.6780 h1        1 MOL      0.063892
    155 H67        -2.2790    3.6910    2.3310 hc        1 MOL      0.004124
    156 H68        -3.7890    3.8920    3.3220 hc        1 MOL      0.004124
    157 H69        -3.4540    6.2360    3.6180 hc        1 MOL      0.057793
    158 H70        -1.7860    6.0840    3.1010 hc        1 MOL      0.057793
    159 N14        -2.4110    4.2550   -0.4740 n         1 MOL     -0.339637
    160 C53        -1.3580    4.5480   -1.4660 c3        1 MOL     -0.166644
    161 C54        -1.8180    5.3650   -2.6520 c         1 MOL      0.556315
    162 O24        -0.9360    5.6900   -3.4700 o         1 MOL     -0.566908
    163 C55        -0.8370    3.1580   -1.9260 c3        1 MOL     -0.019904
    164 C56        -0.3820    2.1390   -0.8380 c3        1 MOL      0.490351
    165 C57         0.7650    2.7940    0.0200 c         1 MOL      0.442947
    166 O25         1.8910    2.2180   -0.0520 o         1 MOL     -0.555714
    167 O26         0.5630    3.7420    0.7770 o         1 MOL     -0.555714
    168 H71        -2.5690    3.2660   -0.3480 hn        1 MOL      0.237298
    169 H72        -0.5950    5.0790   -0.9030 h1        1 MOL      0.174542
    170 H73        -0.0610    3.2850   -2.6880 hc        1 MOL     -0.023222
    171 H74        -1.6720    2.6840   -2.4330 hc        1 MOL     -0.023222
    172 H75         0.0070    1.2620   -1.3570 hc        1 MOL     -0.141867
    173 H76        -1.1290    1.7770   -0.1250 hc        1 MOL     -0.141867
    174 N15        -3.0830    5.6980   -2.7330 n         1 MOL     -0.248393
    175 C58        -3.6510    6.4140   -3.9010 c3        1 MOL     -0.154661
    176 H77        -2.8600    6.9680   -4.4070 h1        1 MOL      0.073739
    177 H78        -4.0880    5.6930   -4.5920 h1        1 MOL      0.073739
    178 H79        -4.4210    7.1080   -3.5640 h1        1 MOL      0.073739
    179 H80        -3.7450    5.5690   -1.9820 hn        1 MOL      0.242013
    180 Ca1         4.2810    2.0920    0.9120 Ca        1 MOL      1.806632
    181 O27         3.8410    4.7740    1.1060 oh        1 MOL     -0.914999
    182 H81         2.9960    5.1550    0.8780 ho        1 MOL      0.438389
    183 H82         4.4670    5.4960    1.0330 ho        1 MOL      0.438389
    184 O28         5.7810    0.7040    2.4150 oh        1 MOL     -0.914999
    185 H83         6.6020    0.2490    2.2360 ho        1 MOL      0.438389
    186 H84         5.5860    0.5030    3.3290 ho        1 MOL      0.438389
    187 O29         2.8270    2.2410    3.0360 oh        1 MOL     -0.914999
    188 H85         2.0890    2.8360    3.1360 ho        1 MOL      0.438389
    189 H86         2.7040    1.5770    3.7100 ho        1 MOL      0.438389
@<TRIPOS>BOND
     1    1    2 1   
     2    1    4 1   
     3    1    5 1   
     4    1    6 1   
     5    2    3 2   
     6    2    7 1   
     7    7    8 1   
     8    7   15 1   
     9    8    9 1   
    10    8   11 1   
    11    8   16 1   
    12    9   10 2   
    13    9   19 1   
    14   11   12 1   
    15   11   17 1   
    16   11   18 1   
    17   12   13 1   
    18   12   14 1   
    19   19   20 1   
    20   19   27 1   
    21   20   21 1   
    22   20   23 1   
    23   20   28 1   
    24   21   22 2   
    25   21   38 1   
    26   23   24 1   
    27   23   25 1   
    28   23   29 1   
    29   24   26 1   
    30   24   30 1   
    31   24   31 1   
    32   25   32 1   
    33   25   33 1   
    34   25   34 1   
    35   26   35 1   
    36   26   36 1   
    37   26   37 1   
    38   38   39 1   
    39   38   46 1   
    40   39   40 1   
    41   39   42 1   
    42   39   47 1   
    43   40   41 2   
    44   40   50 1   
    45   42   43 1   
    46   42   48 1   
    47   42   49 1   
    48   43   44 1   
    49   43   45 1   
    50   50   51 1   
    51   50   54 1   
    52   51   52 1   
    53   51   55 1   
    54   51   56 1   
    55   52   53 2   
    56   52   57 1   
    57   57   58 1   
    58   57   65 1   
    59   58   59 1   
    60   58   61 1   
    61   58   66 1   
    62   59   60 2   
    63   59   69 1   
    64   61   62 1   
    65   61   67 1   
    66   61   68 1   
    67   62   63 1   
    68   62   64 1   
    69   69   70 1   
    70   69   73 1   
    71   70   71 1   
    72   70   74 1   
    73   70   75 1   
    74   71   72 2   
    75   71   76 1   
    76   76   77 1   
    77   76   85 1   
    78   77   78 1   
    79   77   80 1   
    80   77   86 1   
    81   78   79 2   
    82   78   93 1   
    83   80   81 1   
    84   80   87 1   
    85   80   88 1   
    86   81   82 1   
    87   81   89 1   
    88   81   90 1   
    89   82   83 1   
    90   82   84 2   
    91   83   91 1   
    92   83   92 1   
    93   93   94 1   
    94   93  100 1   
    95   94   95 1   
    96   94   97 1   
    97   94  101 1   
    98   95   96 2   
    99   95  109 1   
   100   97   98 1   
   101   97   99 1   
   102   97  102 1   
   103   98  103 1   
   104   98  104 1   
   105   98  105 1   
   106   99  106 1   
   107   99  107 1   
   108   99  108 1   
   109  109  110 1   
   110  109  117 1   
   111  110  111 1   
   112  110  113 1   
   113  110  118 1   
   114  111  112 2   
   115  111  123 1   
   116  113  114 1   
   117  113  119 1   
   118  113  120 1   
   119  114  115 1   
   120  114  116 2   
   121  115  121 1   
   122  115  122 1   
   123  123  124 1   
   124  123  135 1   
   125  124  125 1   
   126  124  127 1   
   127  124  136 1   
   128  125  126 2   
   129  125  144 1   
   130  127  128 1   
   131  127  137 1   
   132  127  138 1   
   133  128  129 ar  
   134  128  130 ar  
   135  129  131 ar  
   136  129  139 1   
   137  130  132 ar  
   138  130  140 1   
   139  131  133 ar  
   140  131  141 1   
   141  132  133 ar  
   142  132  142 1   
   143  133  134 1   
   144  134  143 1   
   145  144  145 1   
   146  144  153 1   
   147  145  146 1   
   148  145  148 1   
   149  145  154 1   
   150  146  147 2   
   151  146  159 1   
   152  148  149 1   
   153  148  155 1   
   154  148  156 1   
   155  149  150 1   
   156  149  157 1   
   157  149  158 1   
   158  150  151 1   
   159  150  152 1   
   160  159  160 1   
   161  159  168 1   
   162  160  161 1   
   163  160  163 1   
   164  160  169 1   
   165  161  162 2   
   166  161  174 1   
   167  163  164 1   
   168  163  170 1   
   169  163  171 1   
   170  164  165 1   
   171  164  172 1   
   172  164  173 1   
   173  165  166 1   
   174  165  167 1   
   175  174  175 1   
   176  174  179 1   
   177  175  176 1   
   178  175  177 1   
   179  175  178 1   
   180  181  182 1   
   181  181  183 1   
   182  184  185 1   
   183  184  186 1   
   184  187  188 1   
   185  187  189 1   
@<TRIPOS>SUBSTRUCTURE
     1 MOL         1 TEMP              0 ****  ****    0 ROOT
