@<TRIPOS>MOLECULE
MOL
  188   182     1     0     0
SMALL
resp


@<TRIPOS>ATOM
      1 C1          6.2140   -3.1930   -3.0120 c3        1 MOL     -0.323137
      2 C2          6.1730   -2.7990   -1.5190 c         1 MOL      0.720306
      3 O1          5.3730   -1.9560   -1.1980 o         1 MOL     -0.525789
      4 H1          5.2840   -2.8900   -3.4930 hc        1 MOL      0.075642
      5 H2          7.0530   -2.6930   -3.4970 hc        1 MOL      0.075642
      6 H3          6.3330   -4.2720   -3.1000 hc        1 MOL      0.075642
      7 N1          7.1780   -3.2010   -0.7190 n         1 MOL     -0.762763
      8 C3          7.4000   -2.7330    0.6600 c3        1 MOL      0.310954
      9 C4          7.6240   -1.2640    0.8790 c         1 MOL      0.375090
     10 O2          7.0370   -0.6800    1.7570 o         1 MOL     -0.440318
     11 C5          6.3580   -3.4240    1.5280 c3        1 MOL     -0.183614
     12 C6          6.6500   -3.4310    2.9800 c         1 MOL      0.678784
     13 O3          5.7090   -3.6440    3.7500 o         1 MOL     -0.658088
     14 O4          7.8220   -3.3320    3.4270 o         1 MOL     -0.658088
     15 H4          7.7330   -3.9960   -0.9830 hn        1 MOL      0.362231
     16 H5          8.3000   -3.2080    1.0680 h1        1 MOL     -0.027810
     17 H6          6.2910   -4.4620    1.2250 hc        1 MOL      0.064893
     18 H7          5.3780   -3.0190    1.2920 hc        1 MOL      0.064893
     19 N2          8.5100   -0.6440    0.1230 n         1 MOL     -0.369089
     20 C7          8.8300    0.8060    0.1000 c3        1 MOL     -0.050615
     21 C8          7.7650    1.8150   -0.4100 c         1 MOL      0.398277
     22 O5          8.0610    3.0070   -0.4680 o         1 MOL     -0.500534
     23 C9         10.0980    0.9370   -0.7240 c3        1 MOL      0.082155
     24 C10         9.9050    0.8700   -2.2330 c3        1 MOL     -0.101918
     25 C11        11.2280    0.5200   -2.9440 c3        1 MOL     -0.018086
     26 C12        12.2500    1.6470   -2.9420 c3        1 MOL      0.045207
     27 N3         13.5150    1.1670   -3.5590 n4        1 MOL     -0.126477
     28 H8          9.0840   -1.2300   -0.4690 hn        1 MOL      0.255283
     29 H9          9.0320    1.1020    1.1280 h1        1 MOL      0.169016
     30 H10        10.8130    0.2290   -0.3260 hc        1 MOL      0.005923
     31 H11        10.5490    1.8430   -0.3290 hc        1 MOL      0.005923
     32 H12         9.4210    1.7420   -2.6820 hc        1 MOL      0.064369
     33 H13         9.2460    0.0590   -2.5400 hc        1 MOL      0.064369
     34 H14        11.0650    0.3030   -4.0050 hc        1 MOL      0.014256
     35 H15        11.5630   -0.3880   -2.4600 hc        1 MOL      0.014256
     36 H16        12.4530    1.8870   -1.9000 hx        1 MOL      0.069531
     37 H17        11.8240    2.5150   -3.4300 hx        1 MOL      0.069531
     38 H18        13.9370    0.3510   -3.1250 hn        1 MOL      0.174023
     39 H19        13.4510    0.8730   -4.5240 hn        1 MOL      0.174023
     40 H20        14.1640    1.9260   -3.4410 hn        1 MOL      0.174023
     41 N4          6.5290    1.3360   -0.6440 n         1 MOL     -0.295243
     42 C13         5.3220    2.1480   -0.7890 c3        1 MOL      0.030476
     43 C14         5.1010    3.0460    0.4540 c         1 MOL      0.477526
     44 O6          5.6150    2.8580    1.5870 o         1 MOL     -0.416799
     45 C15         4.1650    1.1030   -1.0160 c3        1 MOL     -0.021787
     46 C16         2.6540    1.5710   -1.1050 c         1 MOL      0.367070
     47 O7          2.0720    1.5820   -2.2480 o         1 MOL     -0.584664
     48 O8          1.9990    1.9640   -0.0930 o         1 MOL     -0.584664
     49 H21         6.3610    0.3940   -0.3330 hn        1 MOL      0.145745
     50 H22         5.3010    2.8200   -1.6410 h1        1 MOL      0.048126
     51 H23         4.2720    0.3230   -0.2620 hc        1 MOL      0.057761
     52 H24         4.4970    0.6460   -1.9510 hc        1 MOL      0.057761
     53 N5          4.1870    4.0490    0.3180 n         1 MOL     -0.331088
     54 C17         3.8980    4.9960    1.3110 c3        1 MOL     -0.209181
     55 C18         3.1840    4.4130    2.5640 c         1 MOL      0.509087
     56 O9          3.4650    4.9420    3.6380 o         1 MOL     -0.541394
     57 H25         3.8010    4.2320   -0.5970 hn        1 MOL      0.227270
     58 H26         3.2950    5.7500    0.8110 h1        1 MOL      0.105931
     59 H27         4.8810    5.3490    1.6480 h1        1 MOL      0.105931
     60 N6          2.4720    3.3140    2.3890 n         1 MOL     -0.327700
     61 C19         1.7510    2.6970    3.5340 c3        1 MOL      0.116412
     62 C20         1.9860    1.1810    3.5110 c         1 MOL      0.514353
     63 O10         1.2680    0.3820    4.1280 o         1 MOL     -0.566955
     64 C21         0.3500    3.1450    3.3930 c3        1 MOL     -0.422583
     65 C22        -0.7390    2.4370    2.5940 c         1 MOL      0.741119
     66 N7         -1.8270    1.9970    3.2850 n         1 MOL     -0.890357
     67 O11        -0.6420    2.3940    1.3950 o         1 MOL     -0.594860
     68 H28         2.3210    3.0630    1.4200 hn        1 MOL      0.310352
     69 H29         2.1050    3.1320    4.4670 h1        1 MOL      0.105974
     70 H30         0.2840    4.1550    3.0000 hc        1 MOL      0.123676
     71 H31        -0.0200    3.1590    4.4170 hc        1 MOL      0.123676
     72 H32        -1.9900    2.2190    4.2560 hn        1 MOL      0.398250
     73 H33        -2.6000    1.6580    2.7250 hn        1 MOL      0.398250
     74 N8          3.0760    0.7720    2.8910 n         1 MOL     -0.338426
     75 C23         3.5360   -0.6500    2.8790 c3        1 MOL      0.083340
     76 C24         2.8020   -1.6060    1.8650 c         1 MOL      0.441379
     77 O12         3.0150   -2.8060    1.9540 o         1 MOL     -0.492790
     78 H34         3.6580    1.4820    2.4590 hn        1 MOL      0.175506
     79 H35         3.5380   -0.9760    3.9110 h1        1 MOL      0.093870
     80 H36         4.6090   -0.5920    2.6670 h1        1 MOL      0.093870
     81 N9          1.9920   -1.0630    0.9890 n         1 MOL     -0.370023
     82 C25         1.1730   -1.9370    0.0470 c3        1 MOL      0.530108
     83 C26        -0.2200   -1.4340   -0.1980 c         1 MOL      0.204483
     84 O13        -0.4810   -0.2160   -0.1030 o         1 MOL     -0.436121
     85 C27         1.9830   -2.0630   -1.2450 c3        1 MOL     -0.151288
     86 C28         1.3210   -2.6670   -2.4350 ca        1 MOL      0.017983
     87 C29         0.8060   -3.9700   -2.3430 ca        1 MOL     -0.038455
     88 C30         1.1910   -1.9400   -3.6450 ca        1 MOL     -0.038455
     89 C31         0.1610   -4.5150   -3.4780 ca        1 MOL     -0.372475
     90 C32         0.5680   -2.4820   -4.7550 ca        1 MOL     -0.372475
     91 C33        -0.0160   -3.7900   -4.6600 ca        1 MOL      0.411505
     92 O14        -0.8190   -4.2330   -5.6710 oh        1 MOL     -0.449921
     93 H37         2.0400   -0.0620    0.8860 hn        1 MOL      0.097277
     94 H38         1.0980   -2.9470    0.4520 h1        1 MOL     -0.049292
     95 H39         2.8650   -2.6750   -1.0130 hc        1 MOL      0.053298
     96 H40         2.3400   -1.0500   -1.4090 hc        1 MOL      0.053298
     97 H41         0.8370   -4.5770   -1.4450 ha        1 MOL      0.107800
     98 H42         1.7420   -1.0230   -3.7930 ha        1 MOL      0.107800
     99 H43        -0.3170   -5.4890   -3.4250 ha        1 MOL      0.164988
    100 H44         0.4670   -1.9290   -5.6810 ha        1 MOL      0.164988
    101 H45        -0.7990   -3.5230   -6.3090 ho        1 MOL      0.338319
    102 N10        -1.2240   -2.2260   -0.5380 n         1 MOL     -0.409199
    103 C34        -2.6540   -1.8610   -0.6280 c3        1 MOL     -0.221524
    104 C35        -3.1350   -1.3310    0.7900 c         1 MOL      0.312708
    105 O15        -4.0170   -0.4610    0.8070 o         1 MOL     -0.368824
    106 C36        -3.4440   -3.0350   -1.1160 c3        1 MOL      0.246823
    107 C37        -3.1920   -3.2880   -2.6480 c3        1 MOL      0.094930
    108 C38        -4.9730   -2.7970   -0.8500 c3        1 MOL     -0.279986
    109 C39        -3.6020   -4.7200   -3.1740 c3        1 MOL     -0.051762
    110 H46        -1.0950   -3.2120   -0.7020 hn        1 MOL      0.314317
    111 H47        -2.7620   -1.0810   -1.3820 h1        1 MOL      0.108243
    112 H48        -3.2100   -3.9910   -0.6400 hc        1 MOL     -0.041047
    113 H49        -2.1110   -3.2900   -2.7840 hc        1 MOL     -0.036384
    114 H50        -3.6150   -2.5090   -3.2880 hc        1 MOL     -0.036384
    115 H51        -5.6240   -3.5010   -1.3600 hc        1 MOL      0.073091
    116 H52        -5.2500   -2.7970    0.2020 hc        1 MOL      0.073091
    117 H53        -5.2340   -1.8440   -1.3050 hc        1 MOL      0.073091
    118 H54        -3.3770   -4.7980   -4.2430 hc        1 MOL      0.017711
    119 H55        -3.0410   -5.4480   -2.6020 hc        1 MOL      0.017711
    120 H56        -4.6690   -4.9210   -3.0890 hc        1 MOL      0.017711
    121 N11        -2.5760   -1.9230    1.8910 n         1 MOL     -0.113394
    122 C40        -2.9880   -1.4490    3.2580 c3        1 MOL     -0.124975
    123 C41        -4.5060   -1.5270    3.5230 c         1 MOL      0.387597
    124 O16        -5.0850   -0.6610    4.2200 o         1 MOL     -0.472729
    125 C42        -2.0520   -2.0860    4.2470 c3        1 MOL      0.157324
    126 O17        -2.0930   -3.5130    4.1300 oh        1 MOL     -0.607476
    127 H57        -1.9370   -2.7120    1.8690 hn        1 MOL      0.244116
    128 H58        -2.8280   -0.3810    3.3720 h1        1 MOL      0.087039
    129 H59        -2.2410   -1.7940    5.2730 h1        1 MOL      0.081834
    130 H60        -1.0430   -1.7690    3.9580 h1        1 MOL      0.081834
    131 H61        -2.6990   -3.8750    4.7850 ho        1 MOL      0.401725
    132 N12        -5.1410   -2.5700    2.9960 n         1 MOL     -0.227332
    133 C43        -6.5500   -2.8160    3.0840 c3        1 MOL      0.162794
    134 C44        -7.3710   -1.6700    2.5470 c         1 MOL      0.636028
    135 O18        -8.4580   -1.4500    3.0840 o         1 MOL     -0.557423
    136 C45        -6.9090   -3.3930    4.5010 c3        1 MOL     -0.239236
    137 H62        -4.5530   -3.2330    2.5050 hn        1 MOL      0.166175
    138 H63        -6.7550   -3.6020    2.3520 h1        1 MOL      0.044050
    139 H64        -6.8510   -2.6080    5.2590 hc        1 MOL      0.071994
    140 H65        -7.9550   -3.6860    4.4180 hc        1 MOL      0.071994
    141 H66        -6.3200   -4.2880    4.7270 hc        1 MOL      0.071994
    142 N13        -6.9260   -0.9130    1.5540 n         1 MOL     -0.745436
    143 C46        -7.5130    0.3640    1.1450 c3        1 MOL      0.616137
    144 C47        -8.0670    0.3620   -0.2730 c         1 MOL      0.468029
    145 O19        -7.6050   -0.1730   -1.2310 o         1 MOL     -0.476084
    146 C48        -6.5590    1.4720    1.4560 c3        1 MOL     -0.336497
    147 H67        -5.9870   -1.0100    1.1860 hn        1 MOL      0.175460
    148 H68        -8.3410    0.5450    1.8240 h1        1 MOL     -0.036881
    149 H69        -7.1340    2.3830    1.3620 hc        1 MOL      0.064802
    150 H70        -6.2120    1.3660    2.4820 hc        1 MOL      0.064802
    151 H71        -5.6780    1.3580    0.8080 hc        1 MOL      0.064802
    152 N14        -9.1990    1.1240   -0.4190 n         1 MOL     -0.522707
    153 C49       -10.0540    1.3590   -1.5720 c3        1 MOL      0.202779
    154 C50       -10.4750    0.0490   -2.2430 c         1 MOL      0.409258
    155 O20       -10.5760    0.0290   -3.4700 o         1 MOL     -0.503350
    156 C51        -9.5040    2.3160   -2.7140 c3        1 MOL     -0.089759
    157 C52        -9.3660    3.8060   -2.1250 c3        1 MOL     -0.126084
    158 C53       -10.8320    4.2730   -1.9040 c         1 MOL      0.702192
    159 O21       -11.6150    4.2620   -2.8460 o         1 MOL     -0.645171
    160 O22       -11.2430    4.6990   -0.7520 o         1 MOL     -0.645171
    161 H72        -9.4490    1.4780    0.4930 hn        1 MOL      0.241746
    162 H73       -11.0230    1.7780   -1.3170 h1        1 MOL      0.062044
    163 H74       -10.2890    2.3500   -3.4710 hc        1 MOL      0.054905
    164 H75        -8.5350    1.8760   -2.9410 hc        1 MOL      0.054905
    165 H76        -8.9890    4.4440   -2.9250 hc        1 MOL     -0.019198
    166 H77        -8.8720    3.7680   -1.1520 hc        1 MOL     -0.019198
    167 N15       -10.7880   -1.0650   -1.5170 n         1 MOL     -0.335208
    168 C54       -11.0270   -2.4350   -2.0490 c3        1 MOL      0.068858
    169 H78       -10.7700   -2.4620   -3.1080 h1        1 MOL      0.031700
    170 H79       -10.4070   -3.1490   -1.5060 h1        1 MOL      0.031700
    171 H80       -12.0780   -2.6960   -1.9240 h1        1 MOL      0.031700
    172 H81       -10.6090   -1.0270   -0.5260 hn        1 MOL      0.192737
    173 Ca1        -0.3260    2.4090   -1.2300 Ca        1 MOL      1.804122
    174 O23        -0.6150    0.4730   -3.1500 oh        1 MOL     -0.859461
    175 H82        -1.4320    0.4940   -3.6460 ho        1 MOL      0.418164
    176 H83        -0.0930   -0.2120   -3.5710 ho        1 MOL      0.418164
    177 O24         0.7690    4.8170   -0.4140 oh        1 MOL     -0.859461
    178 H84         0.7520    5.5710    0.1710 ho        1 MOL      0.418164
    179 H85         1.4610    5.0000   -1.0420 ho        1 MOL      0.418164
    180 O25        -2.1890    4.0740   -2.0330 oh        1 MOL     -0.859461
    181 H86        -2.3160    4.5730   -2.8400 ho        1 MOL      0.418164
    182 H87        -2.7850    4.4880   -1.4010 ho        1 MOL      0.418164
    183 O26         0.7970    3.9440   -3.3510 oh        1 MOL     -0.859461
    184 H88         0.7000    4.8540   -3.0490 ho        1 MOL      0.418164
    185 H89         0.8580    4.0230   -4.2980 ho        1 MOL      0.418164
    186 O27        -2.8760    1.9550   -0.3180 oh        1 MOL     -0.859461
    187 H90        -3.5240    2.6540   -0.1840 ho        1 MOL      0.418164
    188 H91        -3.2760    1.1720    0.0500 ho        1 MOL      0.418164
@<TRIPOS>BOND
     1    1    2 1   
     2    1    4 1   
     3    1    5 1   
     4    1    6 1   
     5    2    3 2   
     6    2    7 1   
     7    7    8 1   
     8    7   15 1   
     9    8    9 1   
    10    8   11 1   
    11    8   16 1   
    12    9   10 2   
    13    9   19 1   
    14   11   12 1   
    15   11   17 1   
    16   11   18 1   
    17   12   13 1   
    18   12   14 1   
    19   19   20 1   
    20   19   28 1   
    21   20   21 1   
    22   20   23 1   
    23   20   29 1   
    24   21   22 2   
    25   21   41 1   
    26   23   24 1   
    27   23   30 1   
    28   23   31 1   
    29   24   25 1   
    30   24   32 1   
    31   24   33 1   
    32   25   26 1   
    33   25   34 1   
    34   25   35 1   
    35   26   27 1   
    36   26   36 1   
    37   26   37 1   
    38   27   38 1   
    39   27   39 1   
    40   27   40 1   
    41   41   42 1   
    42   41   49 1   
    43   42   43 1   
    44   42   45 1   
    45   42   50 1   
    46   43   44 2   
    47   43   53 1   
    48   45   46 1   
    49   45   51 1   
    50   45   52 1   
    51   46   47 1   
    52   46   48 1   
    53   53   54 1   
    54   53   57 1   
    55   54   55 1   
    56   54   58 1   
    57   54   59 1   
    58   55   56 2   
    59   55   60 1   
    60   60   61 1   
    61   60   68 1   
    62   61   62 1   
    63   61   64 1   
    64   61   69 1   
    65   62   63 2   
    66   62   74 1   
    67   64   65 1   
    68   64   70 1   
    69   64   71 1   
    70   65   66 1   
    71   65   67 2   
    72   66   72 1   
    73   66   73 1   
    74   74   75 1   
    75   74   78 1   
    76   75   76 1   
    77   75   79 1   
    78   75   80 1   
    79   76   77 2   
    80   76   81 1   
    81   81   82 1   
    82   81   93 1   
    83   82   83 1   
    84   82   85 1   
    85   82   94 1   
    86   83   84 2   
    87   83  102 1   
    88   85   86 1   
    89   85   95 1   
    90   85   96 1   
    91   86   87 ar  
    92   86   88 ar  
    93   87   89 ar  
    94   87   97 1   
    95   88   90 ar  
    96   88   98 1   
    97   89   91 ar  
    98   89   99 1   
    99   90   91 ar  
   100   90  100 1   
   101   91   92 1   
   102   92  101 1   
   103  102  103 1   
   104  102  110 1   
   105  103  104 1   
   106  103  106 1   
   107  103  111 1   
   108  104  105 2   
   109  104  121 1   
   110  106  107 1   
   111  106  108 1   
   112  106  112 1   
   113  107  109 1   
   114  107  113 1   
   115  107  114 1   
   116  108  115 1   
   117  108  116 1   
   118  108  117 1   
   119  109  118 1   
   120  109  119 1   
   121  109  120 1   
   122  121  122 1   
   123  121  127 1   
   124  122  123 1   
   125  122  125 1   
   126  122  128 1   
   127  123  124 2   
   128  123  132 1   
   129  125  126 1   
   130  125  129 1   
   131  125  130 1   
   132  126  131 1   
   133  132  133 1   
   134  132  137 1   
   135  133  134 1   
   136  133  136 1   
   137  133  138 1   
   138  134  135 2   
   139  134  142 1   
   140  136  139 1   
   141  136  140 1   
   142  136  141 1   
   143  142  143 1   
   144  142  147 1   
   145  143  144 1   
   146  143  146 1   
   147  143  148 1   
   148  144  145 2   
   149  144  152 1   
   150  146  149 1   
   151  146  150 1   
   152  146  151 1   
   153  152  153 1   
   154  152  161 1   
   155  153  154 1   
   156  153  156 1   
   157  153  162 1   
   158  154  155 2   
   159  154  167 1   
   160  156  157 1   
   161  156  163 1   
   162  156  164 1   
   163  157  158 1   
   164  157  165 1   
   165  157  166 1   
   166  158  159 1   
   167  158  160 1   
   168  167  168 1   
   169  167  172 1   
   170  168  169 1   
   171  168  170 1   
   172  168  171 1   
   173  174  175 1   
   174  174  176 1   
   175  177  178 1   
   176  177  179 1   
   177  180  181 1   
   178  180  182 1   
   179  183  184 1   
   180  183  185 1   
   181  186  187 1   
   182  186  188 1   
@<TRIPOS>SUBSTRUCTURE
     1 MOL         1 TEMP              0 ****  ****    0 ROOT
