@<TRIPOS>MOLECULE
MOL
  181   177     1     0     0
SMALL
resp


@<TRIPOS>ATOM
      1 C1          3.3700   -2.0460    3.8880 c3        1 MOL     -0.394307
      2 C2          4.6690   -1.5390    3.2150 c         1 MOL      0.558338
      3 O1          4.7170   -0.4530    2.6640 o         1 MOL     -0.516963
      4 H1          3.5710   -2.9840    4.4040 hc        1 MOL      0.102701
      5 H2          3.0190   -1.3050    4.6070 hc        1 MOL      0.102701
      6 H3          2.6050   -2.2060    3.1280 hc        1 MOL      0.102701
      7 N1          5.7290   -2.3640    3.1350 n         1 MOL     -0.394782
      8 C3          7.0240   -1.8310    2.6820 c3        1 MOL      0.161048
      9 C4          6.9760   -1.7240    1.1110 c         1 MOL      0.426842
     10 O2          6.0020   -2.1650    0.4970 o         1 MOL     -0.560592
     11 C5          8.2190   -2.6900    3.2340 c3        1 MOL     -0.234811
     12 C6          9.5390   -1.8620    3.3640 c         1 MOL      0.706857
     13 O3          9.7830   -0.9790    2.5410 o         1 MOL     -0.702472
     14 O4         10.4530   -2.2680    4.1350 o         1 MOL     -0.702472
     15 H4          5.6090   -3.3060    3.4880 hn        1 MOL      0.236815
     16 H5          7.0800   -0.8290    3.1110 h1        1 MOL      0.042656
     17 H6          8.3780   -3.5540    2.5880 hc        1 MOL      0.030166
     18 H7          7.9420   -3.0840    4.2090 hc        1 MOL      0.030166
     19 N2          7.9970   -1.1580    0.4310 n         1 MOL     -0.433052
     20 C7          8.0620   -1.0670   -0.9750 c3        1 MOL      0.296189
     21 C8          6.9060   -0.1150   -1.4430 c         1 MOL      0.644678
     22 O5          6.7330    1.0010   -0.8720 o         1 MOL     -0.584911
     23 C9          9.4420   -0.6080   -1.4730 c3        1 MOL     -0.110462
     24 H8          8.7080   -0.7710    1.0380 hn        1 MOL      0.281936
     25 H9          7.9540   -2.0640   -1.3920 h1        1 MOL     -0.007170
     26 H10        10.1180   -1.4490   -1.3350 hc        1 MOL      0.019678
     27 H11         9.2810   -0.4330   -2.5410 hc        1 MOL      0.019678
     28 H12         9.7750    0.3580   -1.0840 hc        1 MOL      0.019678
     29 N3          6.1420   -0.4970   -2.4680 n         1 MOL     -0.603598
     30 C10         5.0470    0.2960   -2.9310 c3        1 MOL      0.307068
     31 C11         5.4200    1.5340   -3.6570 c         1 MOL      0.525626
     32 O6          6.5320    1.6180   -4.1410 o         1 MOL     -0.533586
     33 C12         4.0660   -0.4750   -3.7490 c3        1 MOL     -0.089807
     34 C13         3.6440   -1.8470   -3.1900 c         1 MOL      0.724743
     35 O7          2.6160   -1.8930   -2.4850 o         1 MOL     -0.724666
     36 O8          4.3160   -2.8480   -3.5340 o         1 MOL     -0.724666
     37 H13         6.4480   -1.2380   -3.0870 hn        1 MOL      0.268332
     38 H14         4.6350    0.7160   -2.0100 h1        1 MOL      0.002354
     39 H15         4.5460   -0.5360   -4.7280 hc        1 MOL     -0.016533
     40 H16         3.1860    0.1490   -3.9010 hc        1 MOL     -0.016533
     41 N4          4.4870    2.5140   -3.6340 n         1 MOL     -0.438887
     42 C14         4.8340    3.8890   -4.1470 c3        1 MOL     -0.169468
     43 C15         3.8570    5.0260   -3.9330 c         1 MOL      0.588026
     44 O9          3.8350    5.9920   -4.6540 o         1 MOL     -0.565292
     45 H17         3.5650    2.2320   -3.3270 hn        1 MOL      0.274081
     46 H18         4.9620    3.8000   -5.2290 h1        1 MOL      0.113923
     47 H19         5.8020    4.1360   -3.7010 h1        1 MOL      0.113923
     48 N5          2.8920    4.8880   -3.0190 n         1 MOL     -0.390303
     49 C16         1.7190    5.7210   -2.8450 c3        1 MOL      0.130366
     50 C17         1.5910    5.7580   -1.3140 c         1 MOL      0.343623
     51 O10         1.6860    4.6880   -0.6600 o         1 MOL     -0.445870
     52 C18         0.5850    5.1080   -3.6720 c3        1 MOL     -0.068624
     53 C19        -0.7270    5.8870   -3.7620 c         1 MOL      0.631012
     54 N6         -1.8230    5.2400   -3.4480 n         1 MOL     -0.797039
     55 O11        -0.7160    7.0440   -4.0760 o         1 MOL     -0.574792
     56 H20         2.8890    4.0190   -2.4910 hn        1 MOL      0.224174
     57 H21         1.9310    6.6880   -3.3030 h1        1 MOL      0.034365
     58 H22         0.3990    4.0770   -3.3860 hc        1 MOL      0.055221
     59 H23         0.8680    5.0070   -4.7200 hc        1 MOL      0.055221
     60 H24        -1.9090    4.3040   -3.0710 hn        1 MOL      0.365562
     61 H25        -2.6440    5.7920   -3.2710 hn        1 MOL      0.365562
     62 N7          1.0650    6.8460   -0.8460 n         1 MOL     -0.288235
     63 C20         0.5720    6.9960    0.4870 c3        1 MOL     -0.121915
     64 C21        -0.9160    6.5120    0.6960 c         1 MOL      0.591228
     65 O12        -1.4990    5.8820   -0.2090 o         1 MOL     -0.484671
     66 H26         0.9880    7.6240   -1.4750 hn        1 MOL      0.273355
     67 H27         0.5520    8.0590    0.7440 h1        1 MOL      0.087807
     68 H28         1.3020    6.5020    1.1330 h1        1 MOL      0.087807
     69 N8         -1.4720    6.8410    1.8890 n         1 MOL     -0.427157
     70 C22        -2.9000    6.4920    2.2510 c3        1 MOL     -0.387856
     71 C23        -3.1460    4.9910    2.4440 c         1 MOL      0.607190
     72 O13        -4.3070    4.6250    2.5870 o         1 MOL     -0.573989
     73 C24        -3.4880    7.3380    3.3770 c3        1 MOL      0.596270
     74 C25        -2.8790    7.1770    4.8250 c3        1 MOL     -0.479445
     75 O14        -3.4220    8.6650    3.0550 oh        1 MOL     -0.621042
     76 H29        -0.9540    7.3080    2.6120 hn        1 MOL      0.259494
     77 H30        -3.5180    6.7880    1.4090 h1        1 MOL      0.170801
     78 H31        -4.5580    7.1370    3.4150 h1        1 MOL      0.016561
     79 H32        -2.4720    8.8070    3.0010 ho        1 MOL      0.355376
     80 H33        -3.4780    6.4350    5.3470 hc        1 MOL      0.119059
     81 H34        -1.8600    6.8070    4.8390 hc        1 MOL      0.119059
     82 H35        -3.0800    8.0960    5.3840 hc        1 MOL      0.119059
     83 N9         -2.1470    4.1130    2.6230 n         1 MOL     -0.327356
     84 C26        -2.1330    2.7120    3.1550 c3        1 MOL     -0.064398
     85 C27        -1.6980    1.7450    2.0820 c         1 MOL      0.582342
     86 O15        -0.6150    1.9520    1.5020 o         1 MOL     -0.508546
     87 C28        -1.3800    2.5440    4.5070 c3        1 MOL      0.182419
     88 C29        -1.8020    3.6470    5.5270 c3        1 MOL     -0.105558
     89 C30        -1.5430    1.1820    5.0160 c3        1 MOL     -0.213772
     90 C31        -3.2270    3.6250    6.0280 c3        1 MOL     -0.062105
     91 H36        -1.2160    4.4640    2.4380 hn        1 MOL      0.218509
     92 H37        -3.1530    2.3640    3.3510 h1        1 MOL      0.098576
     93 H38        -0.3120    2.6270    4.2990 hc        1 MOL      0.021583
     94 H39        -1.5960    4.6300    5.1030 hc        1 MOL      0.019744
     95 H40        -1.1250    3.5460    6.3770 hc        1 MOL      0.019744
     96 H41        -0.8940    1.0060    5.8650 hc        1 MOL      0.061903
     97 H42        -2.5380    0.8740    5.3310 hc        1 MOL      0.061903
     98 H43        -1.0580    0.4120    4.4110 hc        1 MOL      0.061903
     99 H44        -3.5920    2.6530    6.3530 hc        1 MOL      0.012049
    100 H45        -3.4670    4.2780    6.8700 hc        1 MOL      0.012049
    101 H46        -3.8000    3.8630    5.1280 hc        1 MOL      0.012049
    102 N10        -2.3830    0.6560    1.8520 n         1 MOL     -0.697032
    103 C32        -1.9840   -0.3600    0.8230 c3        1 MOL      0.245684
    104 C33        -3.2040   -0.8630   -0.0680 c         1 MOL      0.425001
    105 O16        -3.0480   -1.8730   -0.7400 o         1 MOL     -0.494108
    106 C34        -1.2140   -1.4690    1.5700 c3        1 MOL     -0.098086
    107 C35        -0.0780   -2.0520    0.7410 c         1 MOL      0.798690
    108 O17         0.5220   -2.9720    1.3220 o         1 MOL     -0.775979
    109 O18         0.4170   -1.5500   -0.2540 o         1 MOL     -0.775979
    110 H47        -3.2590    0.6110    2.3710 hn        1 MOL      0.311817
    111 H48        -1.3350    0.1400    0.1080 h1        1 MOL      0.097339
    112 H49        -1.8440   -2.2830    1.9290 hc        1 MOL      0.048755
    113 H50        -0.7930   -1.1080    2.5100 hc        1 MOL      0.048755
    114 N11        -4.3610   -0.2810   -0.0020 n         1 MOL     -0.467581
    115 C36        -5.5370   -0.6910   -0.8170 c3        1 MOL      0.377464
    116 C37        -6.0150   -2.0580   -0.4210 c         1 MOL      0.237516
    117 O19        -6.1020   -2.3910    0.8150 o         1 MOL     -0.512865
    118 C38        -6.6050    0.4520   -0.6310 c3        1 MOL     -0.349042
    119 C39        -7.7720    0.4340   -1.6280 ca        1 MOL      0.113898
    120 C40        -7.8270    1.2110   -2.8050 ca        1 MOL     -0.158005
    121 C41        -8.8020   -0.5560   -1.4430 ca        1 MOL     -0.158005
    122 C42        -8.9720    1.0510   -3.7380 ca        1 MOL     -0.135327
    123 C43        -9.9730   -0.5130   -2.2050 ca        1 MOL     -0.135327
    124 C44        -9.9920    0.1580   -3.4520 ca        1 MOL     -0.090704
    125 H51        -4.4590    0.4240    0.7220 hn        1 MOL      0.254761
    126 H52        -5.1990   -0.6520   -1.8520 h1        1 MOL      0.006292
    127 H53        -6.1410    1.4110   -0.8620 hc        1 MOL      0.123904
    128 H54        -7.0020    0.4400    0.3760 hc        1 MOL      0.123904
    129 H55        -7.0690    1.9680   -2.9560 ha        1 MOL      0.121444
    130 H56        -8.7480   -1.2680   -0.6300 ha        1 MOL      0.121444
    131 H57        -9.0660    1.5880   -4.6680 ha        1 MOL      0.112815
    132 H58       -10.7960   -1.1900   -2.0200 ha        1 MOL      0.112815
    133 H59       -10.7560   -0.0560   -4.1930 ha        1 MOL      0.104960
    134 N12        -6.3280   -3.0130   -1.3470 n         1 MOL      0.003178
    135 C45        -6.8030   -4.3940   -1.0350 c3        1 MOL      0.014700
    136 C46        -5.8130   -5.2570   -0.2600 c         1 MOL      0.279675
    137 O20        -6.2650   -6.1950    0.3740 o         1 MOL     -0.512828
    138 C47        -6.9810   -5.0070   -2.4390 c3        1 MOL     -0.056412
    139 C48        -7.2330   -3.8240   -3.3540 c3        1 MOL     -0.156224
    140 C49        -6.2940   -2.7630   -2.7620 c3        1 MOL      0.128765
    141 H60        -7.7780   -4.3200   -0.5520 h1        1 MOL      0.082503
    142 H61        -6.1300   -5.5020   -2.9090 hc        1 MOL      0.060859
    143 H62        -7.8300   -5.6890   -2.4690 hc        1 MOL      0.060859
    144 H63        -6.9480   -4.0630   -4.3860 hc        1 MOL      0.042099
    145 H64        -8.2230   -3.3820   -3.3290 hc        1 MOL      0.042099
    146 H65        -5.2760   -2.8360   -3.1410 h1        1 MOL      0.005371
    147 H66        -6.6730   -1.7980   -3.1100 h1        1 MOL      0.005371
    148 N13        -4.5210   -4.9080   -0.1540 n         1 MOL     -0.142695
    149 C50        -3.4570   -5.5650    0.6540 c3        1 MOL     -0.209986
    150 C51        -3.5480   -5.2500    2.1500 c         1 MOL      0.494244
    151 O21        -2.9090   -5.8900    3.0140 o         1 MOL     -0.546704
    152 C52        -2.0500   -5.2250    0.0930 c3        1 MOL      0.123539
    153 C53        -1.8150   -5.5630   -1.4010 c3        1 MOL     -0.094013
    154 C54        -0.3640   -5.7860   -1.7570 c         1 MOL      0.712895
    155 O22         0.3280   -4.7430   -1.9180 o         1 MOL     -0.731278
    156 O23         0.1470   -6.9250   -1.6860 o         1 MOL     -0.731278
    157 H67        -4.2070   -4.2590   -0.8600 hn        1 MOL      0.205639
    158 H68        -3.6610   -6.6250    0.5700 h1        1 MOL      0.132069
    159 H69        -1.4280   -5.8370    0.7270 hc        1 MOL     -0.000894
    160 H70        -1.9450   -4.1470    0.2440 hc        1 MOL     -0.000894
    161 H71        -2.2940   -4.8000   -2.0200 hc        1 MOL     -0.015360
    162 H72        -2.3820   -6.4390   -1.7140 hc        1 MOL     -0.015360
    163 N14        -4.4060   -4.2750    2.5440 n         1 MOL     -0.177904
    164 C55        -4.6060   -3.7650    3.9660 c3        1 MOL     -0.283479
    165 H73        -5.3240   -2.9430    3.9590 h1        1 MOL      0.105230
    166 H74        -4.9860   -4.5720    4.5930 h1        1 MOL      0.105230
    167 H75        -3.6550   -3.4130    4.3640 h1        1 MOL      0.105230
    168 H76        -4.8530   -3.7100    1.8330 hn        1 MOL      0.213992
    169 Ca1         2.3190   -3.4670   -0.5050 Ca        1 MOL      1.794174
    170 O24         4.5090   -4.6440   -1.5590 oh        1 MOL     -0.874569
    171 H77         5.2320   -5.2700   -1.5910 ho        1 MOL      0.413812
    172 H78         4.8220   -3.8950   -2.0610 ho        1 MOL      0.413812
    173 O25         1.4130   -5.7280    0.6070 oh        1 MOL     -0.874569
    174 H79         0.8590   -6.4820    0.4110 ho        1 MOL      0.413812
    175 H80         1.8210   -5.9400    1.4420 ho        1 MOL      0.413812
    176 O26         3.3760   -1.2170    0.2920 oh        1 MOL     -0.874569
    177 H81         4.1050   -0.9190    0.8440 ho        1 MOL      0.413812
    178 H82         2.8840   -0.4160    0.0960 ho        1 MOL      0.413812
    179 O27         4.3300   -3.9690    1.2540 oh        1 MOL     -0.874569
    180 H83         4.9630   -3.2540    1.2440 ho        1 MOL      0.413812
    181 H84         4.7300   -4.6420    1.8120 ho        1 MOL      0.413812
@<TRIPOS>BOND
     1    1    2 1   
     2    1    4 1   
     3    1    5 1   
     4    1    6 1   
     5    2    3 2   
     6    2    7 1   
     7    7    8 1   
     8    7   15 1   
     9    8    9 1   
    10    8   11 1   
    11    8   16 1   
    12    9   10 2   
    13    9   19 1   
    14   11   12 1   
    15   11   17 1   
    16   11   18 1   
    17   12   13 1   
    18   12   14 1   
    19   19   20 1   
    20   19   24 1   
    21   20   21 1   
    22   20   23 1   
    23   20   25 1   
    24   21   22 2   
    25   21   29 1   
    26   23   26 1   
    27   23   27 1   
    28   23   28 1   
    29   29   30 1   
    30   29   37 1   
    31   30   31 1   
    32   30   33 1   
    33   30   38 1   
    34   31   32 2   
    35   31   41 1   
    36   33   34 1   
    37   33   39 1   
    38   33   40 1   
    39   34   35 1   
    40   34   36 1   
    41   41   42 1   
    42   41   45 1   
    43   42   43 1   
    44   42   46 1   
    45   42   47 1   
    46   43   44 2   
    47   43   48 1   
    48   48   49 1   
    49   48   56 1   
    50   49   50 1   
    51   49   52 1   
    52   49   57 1   
    53   50   51 2   
    54   50   62 1   
    55   52   53 1   
    56   52   58 1   
    57   52   59 1   
    58   53   54 1   
    59   53   55 2   
    60   54   60 1   
    61   54   61 1   
    62   62   63 1   
    63   62   66 1   
    64   63   64 1   
    65   63   67 1   
    66   63   68 1   
    67   64   65 2   
    68   64   69 1   
    69   69   70 1   
    70   69   76 1   
    71   70   71 1   
    72   70   73 1   
    73   70   77 1   
    74   71   72 2   
    75   71   83 1   
    76   73   74 1   
    77   73   75 1   
    78   73   78 1   
    79   74   80 1   
    80   74   81 1   
    81   74   82 1   
    82   75   79 1   
    83   83   84 1   
    84   83   91 1   
    85   84   85 1   
    86   84   87 1   
    87   84   92 1   
    88   85   86 2   
    89   85  102 1   
    90   87   88 1   
    91   87   89 1   
    92   87   93 1   
    93   88   90 1   
    94   88   94 1   
    95   88   95 1   
    96   89   96 1   
    97   89   97 1   
    98   89   98 1   
    99   90   99 1   
   100   90  100 1   
   101   90  101 1   
   102  102  103 1   
   103  102  110 1   
   104  103  104 1   
   105  103  106 1   
   106  103  111 1   
   107  104  105 2   
   108  104  114 1   
   109  106  107 1   
   110  106  112 1   
   111  106  113 1   
   112  107  108 1   
   113  107  109 1   
   114  114  115 1   
   115  114  125 1   
   116  115  116 1   
   117  115  118 1   
   118  115  126 1   
   119  116  117 2   
   120  116  134 1   
   121  118  119 1   
   122  118  127 1   
   123  118  128 1   
   124  119  120 ar  
   125  119  121 ar  
   126  120  122 ar  
   127  120  129 1   
   128  121  123 ar  
   129  121  130 1   
   130  122  124 ar  
   131  122  131 1   
   132  123  124 ar  
   133  123  132 1   
   134  124  133 1   
   135  134  135 1   
   136  134  140 1   
   137  135  136 1   
   138  135  138 1   
   139  135  141 1   
   140  136  137 2   
   141  136  148 1   
   142  138  139 1   
   143  138  142 1   
   144  138  143 1   
   145  139  140 1   
   146  139  144 1   
   147  139  145 1   
   148  140  146 1   
   149  140  147 1   
   150  148  149 1   
   151  148  157 1   
   152  149  150 1   
   153  149  152 1   
   154  149  158 1   
   155  150  151 2   
   156  150  163 1   
   157  152  153 1   
   158  152  159 1   
   159  152  160 1   
   160  153  154 1   
   161  153  161 1   
   162  153  162 1   
   163  154  155 1   
   164  154  156 1   
   165  163  164 1   
   166  163  168 1   
   167  164  165 1   
   168  164  166 1   
   169  164  167 1   
   170  170  171 1   
   171  170  172 1   
   172  173  174 1   
   173  173  175 1   
   174  176  177 1   
   175  176  178 1   
   176  179  180 1   
   177  179  181 1   
@<TRIPOS>SUBSTRUCTURE
     1 MOL         1 TEMP              0 ****  ****    0 ROOT
