@<TRIPOS>MOLECULE
MOL
  181   177     1     0     0
SMALL
resp


@<TRIPOS>ATOM
      1 C1          8.6770   -3.7460    5.3130 c3        1 MOL     -0.378196
      2 C2          7.4950   -3.1540    4.6330 c         1 MOL      0.756712
      3 O1          6.5200   -2.7850    5.3000 o         1 MOL     -0.618441
      4 H1          9.2080   -2.9670    5.8610 hc        1 MOL      0.087128
      5 H2          8.3480   -4.5190    6.0070 hc        1 MOL      0.087128
      6 H3          9.3420   -4.1840    4.5700 hc        1 MOL      0.087128
      7 N1          7.4050   -3.1290    3.3230 n         1 MOL     -0.559797
      8 C3          8.4310   -3.6100    2.4000 c3        1 MOL      0.132452
      9 C4          7.8650   -4.1640    1.1010 c         1 MOL      0.305207
     10 O2          6.7390   -4.7020    1.0520 o         1 MOL     -0.457803
     11 C5          9.3700   -2.4200    2.2230 c3        1 MOL     -0.452149
     12 C6          8.7120   -1.1560    1.6490 c         1 MOL      0.977378
     13 O3          8.6320   -0.1410    2.3310 o         1 MOL     -0.773361
     14 O4          8.2750   -1.2860    0.5200 o         1 MOL     -0.773361
     15 H4          6.6040   -2.7400    2.8370 hn        1 MOL      0.450325
     16 H5          9.0180   -4.3780    2.9000 h1        1 MOL      0.086339
     17 H6         10.1600   -2.6310    1.4940 hc        1 MOL      0.062556
     18 H7          9.7850   -2.1690    3.1950 hc        1 MOL      0.062556
     19 N2          8.7080   -4.1660    0.0800 n         1 MOL     -0.363762
     20 C7          8.4270   -4.5020   -1.2970 c3        1 MOL      0.327178
     21 C8          7.1500   -3.8040   -1.8450 c         1 MOL      0.340420
     22 O5          6.7380   -4.1410   -3.0240 o         1 MOL     -0.555519
     23 C9          8.4220   -6.0360   -1.4360 c3        1 MOL     -0.405179
     24 H8          9.6030   -3.7930    0.3530 hn        1 MOL      0.263637
     25 H9          9.2710   -4.0490   -1.8090 h1        1 MOL      0.019867
     26 H10         8.0570   -6.4960   -0.5160 hc        1 MOL      0.106930
     27 H11         7.8590   -6.3440   -2.3180 hc        1 MOL      0.106930
     28 H12         9.4630   -6.3350   -1.5020 hc        1 MOL      0.106930
     29 N3          6.5490   -2.7810   -1.1520 n         1 MOL     -0.017374
     30 C10         5.3110   -2.0280   -1.4730 c3        1 MOL      0.160979
     31 C11         5.6070   -0.6870   -2.0820 c         1 MOL      0.366664
     32 O6          6.6960   -0.1620   -1.8720 o         1 MOL     -0.521383
     33 C12         4.3320   -1.8160   -0.3050 c3        1 MOL     -0.423947
     34 C13         5.0400   -1.1110    0.8790 c         1 MOL      1.013114
     35 O7          5.3470   -1.7130    1.9320 o         1 MOL     -0.786510
     36 O8          5.2020    0.1510    0.7760 o         1 MOL     -0.786510
     37 H13         7.0270   -2.5090   -0.3060 hn        1 MOL     -0.073069
     38 H14         4.8370   -2.5450   -2.3170 h1        1 MOL      0.055260
     39 H15         4.0000   -2.8210   -0.0400 hc        1 MOL      0.111381
     40 H16         3.4920   -1.2160   -0.6610 hc        1 MOL      0.111381
     41 N4          4.6330   -0.0420   -2.7570 n         1 MOL     -0.407891
     42 C14         4.7150    1.3380   -3.2680 c3        1 MOL     -0.095389
     43 C15         4.6400    2.3280   -2.1010 c         1 MOL      0.571864
     44 O9          5.5360    2.3920   -1.2300 o         1 MOL     -0.540176
     45 H17         3.7520   -0.5260   -2.8370 hn        1 MOL      0.312869
     46 H18         3.9640    1.5860   -4.0200 h1        1 MOL      0.126557
     47 H19         5.6630    1.4390   -3.7900 h1        1 MOL      0.126557
     48 N5          3.6900    3.2940   -2.1890 n         1 MOL     -0.707099
     49 C16         3.5890    4.4000   -1.2870 c3        1 MOL      0.488373
     50 C17         2.1700    4.4210   -0.6910 c         1 MOL      0.596910
     51 O10         1.5900    5.4630   -0.4130 o         1 MOL     -0.547346
     52 C18         3.9610    5.7640   -1.9100 c3        1 MOL     -0.639584
     53 C19         5.4500    5.8100   -2.3420 c         1 MOL      0.943779
     54 N6          6.4500    5.8360   -1.4960 n         1 MOL     -0.844488
     55 O11         5.7570    5.8730   -3.5110 o         1 MOL     -0.613947
     56 H20         2.9790    3.2930   -2.9020 hn        1 MOL      0.381854
     57 H21         4.2620    4.2800   -0.4360 h1        1 MOL     -0.046929
     58 H22         3.8480    6.4730   -1.0820 hc        1 MOL      0.152099
     59 H23         3.2930    6.0310   -2.7230 hc        1 MOL      0.152099
     60 H24         6.3640    5.6390   -0.5150 hn        1 MOL      0.332894
     61 H25         7.4000    5.9760   -1.7980 hn        1 MOL      0.332894
     62 N7          1.5690    3.2630   -0.3800 n         1 MOL     -0.751687
     63 C20         0.1820    3.1910    0.0550 c3        1 MOL      0.510571
     64 C21        -0.7810    2.9490   -1.1430 c         1 MOL      0.336495
     65 O12        -0.4580    2.2840   -2.1220 o         1 MOL     -0.529233
     66 H26         2.0510    2.4190   -0.6660 hn        1 MOL      0.338319
     67 H27        -0.0590    4.1070    0.5850 h1        1 MOL     -0.041849
     68 H28         0.0030    2.3900    0.7720 h1        1 MOL     -0.041849
     69 N8         -2.0060    3.4680   -1.0780 n         1 MOL     -0.204991
     70 C22        -2.4810    4.6640   -0.2600 c3        1 MOL     -0.268856
     71 C23        -3.3350    4.3610    0.9640 c         1 MOL      0.496005
     72 O13        -3.7330    5.2690    1.6570 o         1 MOL     -0.577215
     73 C24        -3.4210    5.4790   -1.1770 c3        1 MOL      0.323903
     74 C25        -2.5650    6.0220   -2.3600 c3        1 MOL     -0.390284
     75 O14        -4.5570    4.9070   -1.7850 oh        1 MOL     -0.609078
     76 H29        -2.6170    3.0350   -1.7530 hn        1 MOL      0.280117
     77 H30        -1.6730    5.2800    0.1180 h1        1 MOL      0.154729
     78 H31        -3.9000    6.2920   -0.6270 h1        1 MOL      0.043049
     79 H32        -4.9500    5.5880   -2.3370 ho        1 MOL      0.415590
     80 H33        -1.8480    6.7260   -1.9190 hc        1 MOL      0.094172
     81 H34        -1.9710    5.2860   -2.9020 hc        1 MOL      0.094172
     82 H35        -3.1310    6.5260   -3.1360 hc        1 MOL      0.094172
     83 N9         -3.5580    3.1120    1.3350 n         1 MOL      0.083257
     84 C26        -4.1420    2.6500    2.6450 c3        1 MOL     -0.037021
     85 C27        -5.4460    3.3270    2.9340 c         1 MOL      0.698184
     86 O15        -5.5720    3.8550    4.0030 o         1 MOL     -0.584494
     87 C28        -3.1460    2.7720    3.8160 c3        1 MOL      0.151437
     88 C29        -1.7260    2.3360    3.4340 c3        1 MOL     -0.058595
     89 C30        -3.5740    1.9100    5.0360 c3        1 MOL     -0.351272
     90 C31        -1.5510    0.9310    2.8530 c3        1 MOL     -0.096783
     91 H36        -3.3290    2.3810    0.6770 hn        1 MOL      0.021646
     92 H37        -4.3760    1.5910    2.5140 h1        1 MOL      0.041892
     93 H38        -3.0250    3.8050    4.1250 hc        1 MOL      0.006638
     94 H39        -1.2100    2.3530    4.3940 hc        1 MOL     -0.007841
     95 H40        -1.2830    3.1350    2.8380 hc        1 MOL     -0.007841
     96 H41        -3.5200    0.8500    4.7850 hc        1 MOL      0.085880
     97 H42        -2.8160    1.9380    5.8190 hc        1 MOL      0.085880
     98 H43        -4.5490    2.2030    5.4080 hc        1 MOL      0.085880
     99 H44        -0.5700    0.9170    2.3830 hc        1 MOL      0.031574
    100 H45        -1.7170    0.0770    3.5100 hc        1 MOL      0.031574
    101 H46        -2.1570    0.8130    1.9490 hc        1 MOL      0.031574
    102 N10        -6.5240    3.2930    2.0910 n         1 MOL     -0.774596
    103 C32        -6.4580    2.8280    0.6740 c3        1 MOL      0.644458
    104 C33        -6.5550    1.3280    0.6320 c         1 MOL      0.300883
    105 O16        -5.5450    0.6310    0.4650 o         1 MOL     -0.486089
    106 C34        -7.3420    3.7080   -0.2830 c3        1 MOL     -0.533947
    107 C35        -8.8070    3.9950    0.1980 c         1 MOL      0.810436
    108 O17        -9.5540    4.6440   -0.5770 o         1 MOL     -0.740124
    109 O18        -9.1720    3.5800    1.2870 o         1 MOL     -0.740124
    110 H47        -7.3770    3.7580    2.3520 hn        1 MOL      0.364785
    111 H48        -5.5530    3.1110    0.1270 h1        1 MOL     -0.087452
    112 H49        -7.4730    3.1680   -1.2270 hc        1 MOL      0.113743
    113 H50        -6.8560    4.6760   -0.4060 hc        1 MOL      0.113743
    114 N11        -7.8080    0.7890    0.7200 n         1 MOL     -0.542461
    115 C36        -7.9860   -0.6760    0.7070 c3        1 MOL      0.571425
    116 C37        -8.6410   -1.0810   -0.6370 c         1 MOL      0.335685
    117 O19        -9.4920   -0.3350   -1.0440 o         1 MOL     -0.523897
    118 C38        -8.7570   -1.2280    1.9640 c3        1 MOL     -0.341427
    119 C39        -8.9420   -2.7130    1.9510 ca        1 MOL      0.122086
    120 C40       -10.0640   -3.2820    1.2120 ca        1 MOL     -0.154420
    121 C41        -8.1660   -3.5630    2.7470 ca        1 MOL     -0.154420
    122 C42       -10.3480   -4.6360    1.3490 ca        1 MOL     -0.090325
    123 C43        -8.4900   -4.9570    2.8540 ca        1 MOL     -0.090325
    124 C44        -9.5920   -5.4970    2.1510 ca        1 MOL     -0.199130
    125 H51        -8.6910    1.2700    0.6420 hn        1 MOL      0.297119
    126 H52        -7.0000   -1.1340    0.6770 h1        1 MOL     -0.105084
    127 H53        -9.7230   -0.7380    1.9030 hc        1 MOL      0.097825
    128 H54        -8.3080   -0.9000    2.8960 hc        1 MOL      0.097825
    129 H55       -10.7260   -2.6190    0.6860 ha        1 MOL      0.110680
    130 H56        -7.3250   -3.2140    3.3340 ha        1 MOL      0.110680
    131 H57       -11.2300   -4.9500    0.8200 ha        1 MOL      0.100123
    132 H58        -7.9310   -5.5850    3.5320 ha        1 MOL      0.100123
    133 H59        -9.8900   -6.5220    2.3200 ha        1 MOL      0.123718
    134 N12        -8.2830   -2.1970   -1.3360 n         1 MOL      0.023314
    135 C45        -7.2540   -3.1670   -0.9190 c3        1 MOL      0.347710
    136 C46        -5.8390   -2.5930   -1.1840 c         1 MOL      0.389594
    137 O20        -5.6570   -1.4490   -1.5550 o         1 MOL     -0.500468
    138 C47        -7.5850   -4.4750   -1.6800 c3        1 MOL     -0.247945
    139 C48        -7.9880   -3.8190   -2.9950 c3        1 MOL      0.087498
    140 C49        -8.7600   -2.5750   -2.6020 c3        1 MOL     -0.113842
    141 H60        -7.3920   -3.4290    0.1310 h1        1 MOL     -0.157452
    142 H61        -6.7550   -5.1730   -1.7620 hc        1 MOL      0.048453
    143 H62        -8.5470   -4.8230   -1.3000 hc        1 MOL      0.048453
    144 H63        -7.1330   -3.4990   -3.5800 hc        1 MOL      0.005168
    145 H64        -8.5340   -4.5320   -3.6070 hc        1 MOL      0.005168
    146 H65        -8.6030   -1.7730   -3.3220 h1        1 MOL      0.038951
    147 H66        -9.8090   -2.7840   -2.4220 h1        1 MOL      0.038951
    148 N13        -4.8430   -3.4770   -1.0350 n         1 MOL     -0.284097
    149 C50        -3.4290   -3.2930   -1.2210 c3        1 MOL      0.057422
    150 C51        -2.4200   -3.9800   -0.2240 c         1 MOL      0.387959
    151 O21        -1.2360   -3.9470   -0.5530 o         1 MOL     -0.508743
    152 C52        -3.1120   -3.4340   -2.7710 c3        1 MOL     -0.043030
    153 C53        -3.5470   -4.7200   -3.5510 c3        1 MOL     -0.126244
    154 C54        -3.0620   -4.6070   -4.9700 c         1 MOL      0.690349
    155 O22        -3.7820   -4.6680   -5.9930 o         1 MOL     -0.684112
    156 O23        -1.8200   -4.5420   -5.1300 o         1 MOL     -0.684112
    157 H67        -5.1790   -4.3940   -0.7450 hn        1 MOL      0.227322
    158 H68        -3.2670   -2.2430   -0.9660 h1        1 MOL      0.092663
    159 H69        -2.0400   -3.2960   -2.9040 hc        1 MOL      0.043076
    160 H70        -3.6070   -2.5640   -3.1820 hc        1 MOL      0.043076
    161 H71        -4.6210   -4.8410   -3.4650 hc        1 MOL     -0.001012
    162 H72        -2.9980   -5.5650   -3.1560 hc        1 MOL     -0.001012
    163 N14        -2.7200   -4.4510    0.9860 n         1 MOL     -0.305736
    164 C55        -3.8040   -4.2340    1.8840 c3        1 MOL     -0.046068
    165 H73        -3.5370   -4.6120    2.8710 h1        1 MOL      0.046960
    166 H74        -4.0150   -3.1670    1.9490 h1        1 MOL      0.046960
    167 H75        -4.6870   -4.7590    1.5210 h1        1 MOL      0.046960
    168 H76        -1.9310   -4.9200    1.3990 hn        1 MOL      0.252383
    169 Ca1         7.3400    1.2480    0.1750 Ca        1 MOL      1.760966
    170 O24         8.3100    2.3720   -2.2050 oh        1 MOL     -0.855415
    171 H77         8.2940    3.1820   -2.7160 ho        1 MOL      0.406465
    172 H78         9.1170    1.9350   -2.4780 ho        1 MOL      0.406465
    173 O25         6.7520    2.1530    2.6860 oh        1 MOL     -0.855415
    174 H79         6.4740    1.3970    3.2010 ho        1 MOL      0.406465
    175 H80         7.0410    2.7990    3.3430 ho        1 MOL      0.406465
    176 O26        10.0700    1.2600   -0.1390 oh        1 MOL     -0.855415
    177 H81        10.6490    1.8650   -0.5950 ho        1 MOL      0.406465
    178 H82        10.6560    0.7000    0.3760 ho        1 MOL      0.406465
    179 O27         8.2500    3.8060    0.7550 oh        1 MOL     -0.855415
    180 H83         7.5820    4.4850    0.9000 ho        1 MOL      0.406465
    181 H84         9.0660    4.2220    1.0350 ho        1 MOL      0.406465
@<TRIPOS>BOND
     1    1    2 1   
     2    1    4 1   
     3    1    5 1   
     4    1    6 1   
     5    2    3 2   
     6    2    7 1   
     7    7    8 1   
     8    7   15 1   
     9    8    9 1   
    10    8   11 1   
    11    8   16 1   
    12    9   10 2   
    13    9   19 1   
    14   11   12 1   
    15   11   17 1   
    16   11   18 1   
    17   12   13 1   
    18   12   14 1   
    19   19   20 1   
    20   19   24 1   
    21   20   21 1   
    22   20   23 1   
    23   20   25 1   
    24   21   22 2   
    25   21   29 1   
    26   23   26 1   
    27   23   27 1   
    28   23   28 1   
    29   29   30 1   
    30   29   37 1   
    31   30   31 1   
    32   30   33 1   
    33   30   38 1   
    34   31   32 2   
    35   31   41 1   
    36   33   34 1   
    37   33   39 1   
    38   33   40 1   
    39   34   35 1   
    40   34   36 1   
    41   41   42 1   
    42   41   45 1   
    43   42   43 1   
    44   42   46 1   
    45   42   47 1   
    46   43   44 2   
    47   43   48 1   
    48   48   49 1   
    49   48   56 1   
    50   49   50 1   
    51   49   52 1   
    52   49   57 1   
    53   50   51 2   
    54   50   62 1   
    55   52   53 1   
    56   52   58 1   
    57   52   59 1   
    58   53   54 1   
    59   53   55 2   
    60   54   60 1   
    61   54   61 1   
    62   62   63 1   
    63   62   66 1   
    64   63   64 1   
    65   63   67 1   
    66   63   68 1   
    67   64   65 2   
    68   64   69 1   
    69   69   70 1   
    70   69   76 1   
    71   70   71 1   
    72   70   73 1   
    73   70   77 1   
    74   71   72 2   
    75   71   83 1   
    76   73   74 1   
    77   73   75 1   
    78   73   78 1   
    79   74   80 1   
    80   74   81 1   
    81   74   82 1   
    82   75   79 1   
    83   83   84 1   
    84   83   91 1   
    85   84   85 1   
    86   84   87 1   
    87   84   92 1   
    88   85   86 2   
    89   85  102 1   
    90   87   88 1   
    91   87   89 1   
    92   87   93 1   
    93   88   90 1   
    94   88   94 1   
    95   88   95 1   
    96   89   96 1   
    97   89   97 1   
    98   89   98 1   
    99   90   99 1   
   100   90  100 1   
   101   90  101 1   
   102  102  103 1   
   103  102  110 1   
   104  103  104 1   
   105  103  106 1   
   106  103  111 1   
   107  104  105 2   
   108  104  114 1   
   109  106  107 1   
   110  106  112 1   
   111  106  113 1   
   112  107  108 1   
   113  107  109 1   
   114  114  115 1   
   115  114  125 1   
   116  115  116 1   
   117  115  118 1   
   118  115  126 1   
   119  116  117 2   
   120  116  134 1   
   121  118  119 1   
   122  118  127 1   
   123  118  128 1   
   124  119  120 ar  
   125  119  121 ar  
   126  120  122 ar  
   127  120  129 1   
   128  121  123 ar  
   129  121  130 1   
   130  122  124 ar  
   131  122  131 1   
   132  123  124 ar  
   133  123  132 1   
   134  124  133 1   
   135  134  135 1   
   136  134  140 1   
   137  135  136 1   
   138  135  138 1   
   139  135  141 1   
   140  136  137 2   
   141  136  148 1   
   142  138  139 1   
   143  138  142 1   
   144  138  143 1   
   145  139  140 1   
   146  139  144 1   
   147  139  145 1   
   148  140  146 1   
   149  140  147 1   
   150  148  149 1   
   151  148  157 1   
   152  149  150 1   
   153  149  152 1   
   154  149  158 1   
   155  150  151 2   
   156  150  163 1   
   157  152  153 1   
   158  152  159 1   
   159  152  160 1   
   160  153  154 1   
   161  153  161 1   
   162  153  162 1   
   163  154  155 1   
   164  154  156 1   
   165  163  164 1   
   166  163  168 1   
   167  164  165 1   
   168  164  166 1   
   169  164  167 1   
   170  170  171 1   
   171  170  172 1   
   172  173  174 1   
   173  173  175 1   
   174  176  177 1   
   175  176  178 1   
   176  179  180 1   
   177  179  181 1   
@<TRIPOS>SUBSTRUCTURE
     1 MOL         1 TEMP              0 ****  ****    0 ROOT
