@<TRIPOS>MOLECULE
MOL
  192   187     1     0     0
SMALL
resp


@<TRIPOS>ATOM
      1 C1          9.5890    1.3550    1.6820 c3        1 MOL     -0.474580
      2 C2          8.3470    0.7740    0.9380 c         1 MOL      0.750946
      3 O1          7.2570    0.9680    1.4010 o         1 MOL     -0.626507
      4 H1          9.2670    2.1400    2.3670 hc        1 MOL      0.115809
      5 H2         10.0810    0.5620    2.2450 hc        1 MOL      0.115809
      6 H3         10.2870    1.7720    0.9550 hc        1 MOL      0.115809
      7 N1          8.5550    0.2170   -0.2860 n         1 MOL     -0.495377
      8 C3          7.4480   -0.2650   -1.1420 c3        1 MOL     -0.085487
      9 C4          6.9570   -1.7180   -0.9360 c         1 MOL      0.412726
     10 O2          6.7200   -2.4320   -1.9080 o         1 MOL     -0.424079
     11 C5          7.6920    0.0900   -2.5880 c3        1 MOL     -0.269140
     12 C6          9.0080   -0.3590   -3.2080 c         1 MOL      0.749995
     13 O3          9.8280   -1.1010   -2.6420 o         1 MOL     -0.654406
     14 O4          9.2640    0.1760   -4.3380 o         1 MOL     -0.654406
     15 H4          9.4890    0.1620   -0.6660 hn        1 MOL      0.280844
     16 H5          6.6300    0.3810   -0.8080 h1        1 MOL      0.188666
     17 H6          7.7300    1.1850   -2.5880 hc        1 MOL      0.093184
     18 H7          6.8580   -0.2470   -3.1870 hc        1 MOL      0.093184
     19 N2          6.7080   -2.1260    0.2370 n         1 MOL     -0.255360
     20 C7          6.1670   -3.5010    0.5700 c3        1 MOL      0.074179
     21 C8          4.7640   -3.7180   -0.0370 c         1 MOL      0.346487
     22 O5          4.6020   -4.5990   -0.8560 o         1 MOL     -0.474217
     23 C9          6.2870   -3.8960    2.0390 c3        1 MOL      0.001340
     24 C10         7.6250   -3.4780    2.6950 c3        1 MOL      0.029669
     25 C11         8.7190   -4.4910    2.3830 c3        1 MOL     -0.155948
     26 C12        10.0740   -4.0170    2.9010 c3        1 MOL      0.071080
     27 N3         10.1390   -4.0450    4.3810 n4        1 MOL     -0.341303
     28 H8          6.9050   -1.4400    0.9520 hn        1 MOL      0.153144
     29 H9          6.8110   -4.2370    0.0820 h1        1 MOL      0.058555
     30 H10         6.1910   -4.9730    2.1880 hc        1 MOL      0.008035
     31 H11         5.4870   -3.4310    2.6110 hc        1 MOL      0.008035
     32 H12         7.4610   -3.4680    3.7730 hc        1 MOL     -0.010363
     33 H13         7.8430   -2.4490    2.4260 hc        1 MOL     -0.010363
     34 H14         8.8970   -4.5950    1.3070 hc        1 MOL      0.098669
     35 H15         8.5300   -5.5290    2.6840 hc        1 MOL      0.098669
     36 H16        10.0410   -2.9870    2.5640 hx        1 MOL      0.070384
     37 H17        10.9400   -4.4700    2.4240 hx        1 MOL      0.070384
     38 H18         9.9390   -4.9810    4.7150 hn        1 MOL      0.281610
     39 H19        11.0620   -3.8240    4.7070 hn        1 MOL      0.281610
     40 H20         9.5650   -3.2820    4.7050 hn        1 MOL      0.281610
     41 N4          3.8050   -2.8820    0.3160 n         1 MOL     -0.221296
     42 C13         3.8400   -1.6580    1.0570 c3        1 MOL     -0.023208
     43 C14         3.9070   -0.4350    0.1060 c         1 MOL      0.054533
     44 O6          3.6540   -0.6510   -1.0940 o         1 MOL     -0.298298
     45 C15         2.6290   -1.5180    2.0400 c3        1 MOL     -0.311218
     46 C16         1.2120   -1.6780    1.4090 c         1 MOL      0.845728
     47 O7          1.0270   -1.3590    0.2040 o         1 MOL     -0.720115
     48 O8          0.3160   -2.2230    2.1000 o         1 MOL     -0.720115
     49 H21         2.8870   -3.2210    0.0670 hn        1 MOL      0.280166
     50 H22         4.7210   -1.5440    1.6820 h1        1 MOL      0.128601
     51 H23         2.6440   -0.5010    2.4560 hc        1 MOL      0.063385
     52 H24         2.7100   -2.3200    2.7760 hc        1 MOL      0.063385
     53 N5          4.2050    0.7920    0.6840 n         1 MOL     -0.073252
     54 C17         4.1340    2.1110    0.0690 c3        1 MOL     -0.169144
     55 C18         2.8930    2.4640   -0.6590 c         1 MOL      0.684635
     56 O9          1.8510    1.7830   -0.5370 o         1 MOL     -0.539185
     57 H25         4.4880    0.6550    1.6410 hn        1 MOL      0.227457
     58 H26         5.0410    2.2090   -0.5270 h1        1 MOL      0.075949
     59 H27         4.1520    2.8600    0.8510 h1        1 MOL      0.075949
     60 N6          3.0010    3.6150   -1.3860 n         1 MOL     -0.546462
     61 C19         1.8960    4.3820   -2.0250 c3        1 MOL      0.122692
     62 C20         2.1460    5.9350   -2.0000 c         1 MOL      0.505011
     63 O10         3.2620    6.4470   -1.8110 o         1 MOL     -0.550022
     64 C21         1.7900    3.7890   -3.5270 c3        1 MOL     -0.225825
     65 C22         1.1650    2.4130   -3.6370 c         1 MOL      0.620288
     66 O11         0.0650    2.2320   -3.0780 o         1 MOL     -0.625403
     67 O12         1.8600    1.6020   -4.2930 o         1 MOL     -0.625403
     68 H28         3.9200    3.9940   -1.5790 hn        1 MOL      0.317961
     69 H29         0.9350    4.3480   -1.4990 h1        1 MOL      0.092665
     70 H30         2.7740    3.5540   -3.9400 hc        1 MOL      0.064323
     71 H31         1.1100    4.4060   -4.1090 hc        1 MOL      0.064323
     72 N7          1.2610    6.7740   -2.4760 n         1 MOL     -0.499163
     73 C23        -0.1730    6.4860   -2.7710 c3        1 MOL      0.053676
     74 C24        -1.0190    6.3850   -1.4600 c         1 MOL      0.513207
     75 O13        -0.7140    6.9800   -0.3720 o         1 MOL     -0.512369
     76 H32         1.5760    7.7100   -2.6930 hn        1 MOL      0.337848
     77 H33        -0.1930    5.5590   -3.3370 h1        1 MOL      0.054863
     78 H34        -0.6720    7.2210   -3.4020 h1        1 MOL      0.054863
     79 N8         -2.0340    5.4810   -1.5370 n         1 MOL     -0.575158
     80 C25        -2.6830    4.8540   -0.4350 c3        1 MOL      0.156847
     81 C26        -1.8340    3.7590    0.1640 c         1 MOL      0.785998
     82 O14        -1.2580    2.9020   -0.5410 o         1 MOL     -0.812534
     83 C27        -4.0980    4.3930   -0.8170 c3        1 MOL      0.414854
     84 C28        -4.9080    4.0980    0.3900 c3        1 MOL     -0.262560
     85 O15        -4.2120    3.3240   -1.7680 oh        1 MOL     -0.617153
     86 H35        -2.1930    5.0230   -2.4260 hn        1 MOL      0.268853
     87 H36        -2.7660    5.6520    0.3000 h1        1 MOL      0.029222
     88 H37        -4.5010    5.3040   -1.2520 h1        1 MOL     -0.044608
     89 H38        -4.8610    3.6290   -2.3990 ho        1 MOL      0.405829
     90 H39        -4.7840    4.9890    0.9970 hc        1 MOL      0.055495
     91 H40        -5.9240    3.8470    0.0980 hc        1 MOL      0.055495
     92 H41        -4.4390    3.2320    0.8580 hc        1 MOL      0.055495
     93 N9         -1.8570    3.7860    1.4740 n         1 MOL     -0.499920
     94 C29        -1.0910    2.9700    2.3800 c3        1 MOL      0.046200
     95 C30        -1.2960    1.4280    2.1940 c         1 MOL      0.605049
     96 O16        -0.5400    0.8210    1.4420 o         1 MOL     -0.558204
     97 C31         0.3750    3.4650    2.5350 c3        1 MOL      0.084772
     98 C32         0.3350    4.9920    2.9040 c3        1 MOL     -0.095234
     99 C33         1.1370    2.6680    3.5430 c3        1 MOL     -0.327770
    100 C34         1.7640    5.6050    3.0410 c3        1 MOL     -0.003396
    101 H42        -2.4790    4.4270    1.9320 hn        1 MOL      0.267189
    102 H43        -1.5110    3.2410    3.3500 h1        1 MOL      0.042049
    103 H44         0.7880    3.2430    1.5600 hc        1 MOL      0.046177
    104 H45        -0.2170    5.2380    3.8090 hc        1 MOL      0.027901
    105 H46        -0.1890    5.6070    2.1670 hc        1 MOL      0.027901
    106 H47         2.2070    2.8890    3.5980 hc        1 MOL      0.087709
    107 H48         0.7080    2.9420    4.5120 hc        1 MOL      0.087709
    108 H49         1.1330    1.5840    3.4550 hc        1 MOL      0.087709
    109 H50         2.4560    5.0950    3.7140 hc        1 MOL      0.011526
    110 H51         2.3180    5.7420    2.1160 hc        1 MOL      0.011526
    111 H52         1.7280    6.5910    3.4940 hc        1 MOL      0.011526
    112 N10        -2.3360    0.8230    2.7440 n         1 MOL     -0.600863
    113 C35        -2.5180   -0.6430    2.8500 c3        1 MOL      0.003711
    114 C36        -3.9220   -1.1040    2.6060 c         1 MOL      0.517238
    115 O17        -4.2160   -2.2500    2.3520 o         1 MOL     -0.548805
    116 C37        -2.1530   -1.1290    4.2710 c3        1 MOL      0.361413
    117 C38        -2.9820   -0.5530    5.3220 c3        1 MOL     -0.093082
    118 O18        -0.7720   -0.7770    4.5280 oh        1 MOL     -0.631814
    119 H53        -2.8270    1.3740    3.4290 hn        1 MOL      0.303531
    120 H54        -1.9640   -1.2300    2.1160 h1        1 MOL      0.121856
    121 H55        -2.3310   -2.2010    4.2650 h1        1 MOL      0.001651
    122 H56        -0.1660   -1.1560    3.8800 ho        1 MOL      0.371019
    123 H57        -4.0400   -0.6990    5.0820 hc        1 MOL      0.013588
    124 H58        -2.7820   -1.0640    6.2520 hc        1 MOL      0.013588
    125 H59        -2.7310    0.4840    5.5460 hc        1 MOL      0.013588
    126 N11        -4.9060   -0.1080    2.7550 n         1 MOL     -0.059479
    127 C39        -6.3460   -0.2060    2.6400 c3        1 MOL     -0.058373
    128 C40        -6.7960   -0.5550    1.2390 c         1 MOL      0.337700
    129 O19        -7.1120    0.2640    0.3790 o         1 MOL     -0.442827
    130 C41        -7.0940    1.0150    3.0680 c3        1 MOL      0.286571
    131 C42        -7.1340    1.0900    4.5930 c3        1 MOL     -0.319458
    132 O20        -6.4550    2.1960    2.6380 oh        1 MOL     -0.617341
    133 H60        -4.5160    0.7990    2.9490 hn        1 MOL      0.147135
    134 H61        -6.5680   -1.0440    3.3010 h1        1 MOL      0.041771
    135 H62        -8.1340    0.9970    2.7660 h1        1 MOL      0.032721
    136 H63        -6.9160    2.9170    3.0760 ho        1 MOL      0.399036
    137 H64        -7.7610    0.2290    4.8350 hc        1 MOL      0.073959
    138 H65        -6.1300    1.2000    5.0070 hc        1 MOL      0.073959
    139 H66        -7.6510    1.9710    4.9730 hc        1 MOL      0.073959
    140 N12        -6.7530   -1.8660    1.0060 n         1 MOL     -0.220968
    141 C43        -6.6620   -2.5320   -0.2460 c3        1 MOL     -0.127252
    142 C44        -5.2980   -2.3380   -0.8790 c         1 MOL      0.417906
    143 O21        -4.9560   -1.2090   -1.2830 o         1 MOL     -0.464406
    144 C45        -7.8370   -2.3050   -1.1990 c3        1 MOL     -0.220362
    145 C46        -9.2060   -2.6850   -0.6600 c3        1 MOL      0.104289
    146 C47       -10.3100   -1.8820   -1.3080 c3        1 MOL      0.050914
    147 C48       -11.7100   -2.2970   -0.7410 c3        1 MOL      0.055479
    148 N13       -12.6860   -1.7570   -1.5920 n4        1 MOL     -0.207897
    149 H67        -6.5890   -2.3910    1.8530 hn        1 MOL      0.234086
    150 H68        -6.7830   -3.5520    0.1010 h1        1 MOL      0.085701
    151 H69        -7.5970   -2.8260   -2.1230 hc        1 MOL      0.096485
    152 H70        -7.8510   -1.2460   -1.4820 hc        1 MOL      0.096485
    153 H71        -9.1990   -2.4920    0.4120 hc        1 MOL     -0.018048
    154 H72        -9.3680   -3.7400   -0.8810 hc        1 MOL     -0.018048
    155 H73       -10.2270   -2.0560   -2.3860 hc        1 MOL      0.016746
    156 H74       -10.1280   -0.8300   -1.1290 hc        1 MOL      0.016746
    157 H75       -11.8400   -1.8260    0.2290 hx        1 MOL      0.046035
    158 H76       -11.8480   -3.3730   -0.6490 hx        1 MOL      0.046035
    159 H77       -13.5460   -1.8720   -1.0820 hn        1 MOL      0.211528
    160 H78       -12.5250   -0.7760   -1.7450 hn        1 MOL      0.211528
    161 H79       -12.5830   -2.2810   -2.4560 hn        1 MOL      0.211528
    162 N14        -4.5320   -3.4330   -1.0300 n         1 MOL     -0.258163
    163 C49        -3.1640   -3.4350   -1.6130 c3        1 MOL      0.190364
    164 C50        -2.0850   -2.9430   -0.6080 c         1 MOL      0.442837
    165 O22        -1.3960   -1.9760   -1.0100 o         1 MOL     -0.562447
    166 C51        -2.9390   -4.7980   -2.2470 c3        1 MOL     -0.020866
    167 C52        -3.5060   -4.9130   -3.6460 c3        1 MOL     -0.298333
    168 C53        -3.3950   -6.3070   -4.3440 c         1 MOL      0.650714
    169 O23        -3.9960   -7.2940   -3.7810 o         1 MOL     -0.613357
    170 O24        -2.6480   -6.5650   -5.3190 o         1 MOL     -0.613357
    171 H80        -4.9810   -4.2950   -0.7500 hn        1 MOL      0.230429
    172 H81        -3.2240   -2.7360   -2.4450 h1        1 MOL      0.027860
    173 H82        -3.3150   -5.6610   -1.6940 hc        1 MOL      0.056810
    174 H83        -1.8660   -4.7740   -2.3840 hc        1 MOL      0.056810
    175 H84        -2.9420   -4.1890   -4.2470 hc        1 MOL      0.058781
    176 H85        -4.5440   -4.5790   -3.6390 hc        1 MOL      0.058781
    177 N15        -1.7610   -3.5620    0.6050 n         1 MOL     -0.367769
    178 C54        -2.1990   -4.8720    1.0130 c3        1 MOL      0.025582
    179 H86        -1.8560   -5.6110    0.2880 h1        1 MOL      0.013241
    180 H87        -1.7840   -5.1070    1.9930 h1        1 MOL      0.013241
    181 H88        -3.2870   -4.8930    1.0640 h1        1 MOL      0.013241
    182 H89        -0.9980   -3.1830    1.1480 hn        1 MOL      0.346691
    183 Ca1        -0.3720    0.4760   -1.1190 Ca        1 MOL      1.823919
    184 O25         1.3300   -1.0140   -2.6000 oh        1 MOL     -0.869543
    185 H90         1.3610   -1.7380   -3.2200 ho        1 MOL      0.409457
    186 H91         2.1390   -1.1010   -2.0910 ho        1 MOL      0.409457
    187 O26        -3.0340    0.8630   -0.6080 oh        1 MOL     -0.869543
    188 H92        -3.7350    0.2720   -0.8650 ho        1 MOL      0.409457
    189 H93        -3.3530    1.7420   -0.8120 ho        1 MOL      0.409457
    190 O27        -1.7660    0.2860   -3.5060 oh        1 MOL     -0.869543
    191 H94        -2.5140   -0.0790   -3.9790 ho        1 MOL      0.409457
    192 H95        -1.2400    0.7150   -4.1780 ho        1 MOL      0.409457
@<TRIPOS>BOND
     1    1    2 1   
     2    1    4 1   
     3    1    5 1   
     4    1    6 1   
     5    2    3 2   
     6    2    7 1   
     7    7    8 1   
     8    7   15 1   
     9    8    9 1   
    10    8   11 1   
    11    8   16 1   
    12    9   10 2   
    13    9   19 1   
    14   11   12 1   
    15   11   17 1   
    16   11   18 1   
    17   12   13 1   
    18   12   14 1   
    19   19   20 1   
    20   19   28 1   
    21   20   21 1   
    22   20   23 1   
    23   20   29 1   
    24   21   22 2   
    25   21   41 1   
    26   23   24 1   
    27   23   30 1   
    28   23   31 1   
    29   24   25 1   
    30   24   32 1   
    31   24   33 1   
    32   25   26 1   
    33   25   34 1   
    34   25   35 1   
    35   26   27 1   
    36   26   36 1   
    37   26   37 1   
    38   27   38 1   
    39   27   39 1   
    40   27   40 1   
    41   41   42 1   
    42   41   49 1   
    43   42   43 1   
    44   42   45 1   
    45   42   50 1   
    46   43   44 2   
    47   43   53 1   
    48   45   46 1   
    49   45   51 1   
    50   45   52 1   
    51   46   47 1   
    52   46   48 1   
    53   53   54 1   
    54   53   57 1   
    55   54   55 1   
    56   54   58 1   
    57   54   59 1   
    58   55   56 2   
    59   55   60 1   
    60   60   61 1   
    61   60   68 1   
    62   61   62 1   
    63   61   64 1   
    64   61   69 1   
    65   62   63 2   
    66   62   72 1   
    67   64   65 1   
    68   64   70 1   
    69   64   71 1   
    70   65   66 1   
    71   65   67 1   
    72   72   73 1   
    73   72   76 1   
    74   73   74 1   
    75   73   77 1   
    76   73   78 1   
    77   74   75 2   
    78   74   79 1   
    79   79   80 1   
    80   79   86 1   
    81   80   81 1   
    82   80   83 1   
    83   80   87 1   
    84   81   82 2   
    85   81   93 1   
    86   83   84 1   
    87   83   85 1   
    88   83   88 1   
    89   84   90 1   
    90   84   91 1   
    91   84   92 1   
    92   85   89 1   
    93   93   94 1   
    94   93  101 1   
    95   94   95 1   
    96   94   97 1   
    97   94  102 1   
    98   95   96 2   
    99   95  112 1   
   100   97   98 1   
   101   97   99 1   
   102   97  103 1   
   103   98  100 1   
   104   98  104 1   
   105   98  105 1   
   106   99  106 1   
   107   99  107 1   
   108   99  108 1   
   109  100  109 1   
   110  100  110 1   
   111  100  111 1   
   112  112  113 1   
   113  112  119 1   
   114  113  114 1   
   115  113  116 1   
   116  113  120 1   
   117  114  115 2   
   118  114  126 1   
   119  116  117 1   
   120  116  118 1   
   121  116  121 1   
   122  117  123 1   
   123  117  124 1   
   124  117  125 1   
   125  118  122 1   
   126  126  127 1   
   127  126  133 1   
   128  127  128 1   
   129  127  130 1   
   130  127  134 1   
   131  128  129 2   
   132  128  140 1   
   133  130  131 1   
   134  130  132 1   
   135  130  135 1   
   136  131  137 1   
   137  131  138 1   
   138  131  139 1   
   139  132  136 1   
   140  140  141 1   
   141  140  149 1   
   142  141  142 1   
   143  141  144 1   
   144  141  150 1   
   145  142  143 2   
   146  142  162 1   
   147  144  145 1   
   148  144  151 1   
   149  144  152 1   
   150  145  146 1   
   151  145  153 1   
   152  145  154 1   
   153  146  147 1   
   154  146  155 1   
   155  146  156 1   
   156  147  148 1   
   157  147  157 1   
   158  147  158 1   
   159  148  159 1   
   160  148  160 1   
   161  148  161 1   
   162  162  163 1   
   163  162  171 1   
   164  163  164 1   
   165  163  166 1   
   166  163  172 1   
   167  164  165 2   
   168  164  177 1   
   169  166  167 1   
   170  166  173 1   
   171  166  174 1   
   172  167  168 1   
   173  167  175 1   
   174  167  176 1   
   175  168  169 1   
   176  168  170 1   
   177  177  178 1   
   178  177  182 1   
   179  178  179 1   
   180  178  180 1   
   181  178  181 1   
   182  184  185 1   
   183  184  186 1   
   184  187  188 1   
   185  187  189 1   
   186  190  191 1   
   187  190  192 1   
@<TRIPOS>SUBSTRUCTURE
     1 MOL         1 TEMP              0 ****  ****    0 ROOT
