@<TRIPOS>MOLECULE
MOL
  195   189     1     0     0
SMALL
resp


@<TRIPOS>ATOM
      1 C1         -1.4120    8.6500   -1.8730 c3        1 MOL     -0.369757
      2 C2         -1.8420    7.4480   -1.0580 c         1 MOL      0.715993
      3 O1         -2.0500    7.5810    0.1030 o         1 MOL     -0.581154
      4 H1         -1.2110    8.3390   -2.8980 hc        1 MOL      0.090529
      5 H2         -2.2060    9.3950   -1.8690 hc        1 MOL      0.090529
      6 H3         -0.5080    9.0790   -1.4400 hc        1 MOL      0.090529
      7 N1         -1.8950    6.2680   -1.6540 n         1 MOL     -0.447177
      8 C3         -2.1740    5.0270   -0.9420 c3        1 MOL      0.033999
      9 C4         -0.9770    4.1750   -0.6260 c         1 MOL      0.715747
     10 O2         -1.0570    3.3920    0.3270 o         1 MOL     -0.641182
     11 C5         -3.2510    4.1850   -1.7200 c3        1 MOL     -0.047634
     12 C6         -2.8440    3.6360   -3.1150 c         1 MOL      0.638998
     13 O3         -2.1440    4.3510   -3.8900 o         1 MOL     -0.673696
     14 O4         -3.2550    2.5350   -3.4870 o         1 MOL     -0.673696
     15 H4         -1.7410    6.2370   -2.6510 hn        1 MOL      0.189697
     16 H5         -2.6220    5.2460    0.0380 h1        1 MOL      0.092394
     17 H6         -4.0450    4.9170   -1.9060 hc        1 MOL      0.018588
     18 H7         -3.5810    3.2800   -1.1950 hc        1 MOL      0.018588
     19 N2          0.1420    4.3660   -1.3320 n         1 MOL     -0.697231
     20 C7          1.3730    3.4590   -1.3660 c3        1 MOL      0.088821
     21 C8          2.0450    3.4040   -0.0100 c         1 MOL      0.780536
     22 O5          2.3500    4.4900    0.5130 o         1 MOL     -0.584629
     23 C9          2.4030    3.8060   -2.4950 c3        1 MOL     -0.008642
     24 C10         1.8380    3.6830   -3.9190 c3        1 MOL     -0.087874
     25 C11         1.2300    2.3160   -4.3180 c3        1 MOL     -0.121296
     26 C12         0.8150    2.5730   -5.7600 c3        1 MOL      0.140812
     27 N3         -0.3030    3.5270   -5.8610 n4        1 MOL     -0.325987
     28 H8          0.0460    5.0100   -2.0980 hn        1 MOL      0.337144
     29 H9          1.0240    2.4420   -1.5770 h1        1 MOL      0.153222
     30 H10         3.2460    3.1420   -2.3020 hc        1 MOL      0.037413
     31 H11         2.7840    4.8160   -2.3750 hc        1 MOL      0.037413
     32 H12         2.6310    3.9860   -4.6070 hc        1 MOL      0.016543
     33 H13         1.0010    4.3760   -3.9770 hc        1 MOL      0.016543
     34 H14         0.3620    2.0780   -3.7060 hc        1 MOL      0.096560
     35 H15         2.0090    1.5430   -4.3390 hc        1 MOL      0.096560
     36 H16         0.5680    1.6100   -6.2100 hx        1 MOL      0.036323
     37 H17         1.5880    2.9600   -6.4240 hx        1 MOL      0.036323
     38 H18        -0.8890    3.6410   -5.0550 hn        1 MOL      0.287930
     39 H19         0.1270    4.4220   -6.0570 hn        1 MOL      0.287930
     40 H20        -0.9130    3.3450   -6.6480 hn        1 MOL      0.287930
     41 N4          2.4510    2.2730    0.5370 n         1 MOL     -0.935123
     42 C13         2.3400    0.8000    0.0800 c3        1 MOL      0.426679
     43 C14         2.7850    0.5040   -1.3710 c         1 MOL      0.076427
     44 O6          1.9810    0.1150   -2.2050 o         1 MOL     -0.543604
     45 C15         0.8920    0.3140    0.3950 c3        1 MOL      0.086948
     46 C16         0.3530    0.5290    1.8170 c         1 MOL      0.681701
     47 O7         -0.8600    0.2290    1.9760 o         1 MOL     -0.751170
     48 O8          1.0650    0.6390    2.7440 o         1 MOL     -0.751170
     49 H21         2.9270    2.3060    1.4290 hn        1 MOL      0.387538
     50 H22         2.9890    0.2580    0.7670 h1        1 MOL      0.057039
     51 H23         0.9550   -0.7780    0.3570 hc        1 MOL     -0.032569
     52 H24         0.2140    0.6670   -0.3820 hc        1 MOL     -0.032569
     53 N5          4.0410    0.6860   -1.7970 n         1 MOL      0.052156
     54 C17         5.2360    0.9860   -0.9560 c3        1 MOL     -0.344120
     55 C18         6.5260    0.9140   -1.8890 c         1 MOL      0.579887
     56 O9          6.4940    0.2970   -2.9890 o         1 MOL     -0.557400
     57 H25         4.2550    0.5780   -2.7830 hn        1 MOL      0.192362
     58 H26         5.3380    0.2210   -0.1810 h1        1 MOL      0.141996
     59 H27         5.0860    1.9940   -0.5790 h1        1 MOL      0.141996
     60 N6          7.6160    1.5660   -1.4590 n         1 MOL     -0.544437
     61 C19         7.8250    1.9920   -0.0560 c3        1 MOL      0.117040
     62 C20         8.2910    0.7100    0.6460 c         1 MOL      0.493793
     63 O10         9.1830   -0.0270    0.1830 o         1 MOL     -0.498057
     64 C21         8.8660    3.1430   -0.1150 c3        1 MOL     -0.175429
     65 C22         9.2570    3.6390    1.2500 c         1 MOL      0.677563
     66 O11        10.4800    3.7870    1.5360 o         1 MOL     -0.650302
     67 O12         8.3330    3.8300    2.0850 o         1 MOL     -0.650302
     68 H28         8.4020    1.4580   -2.0790 hn        1 MOL      0.336442
     69 H29         6.8730    2.2750    0.3940 h1        1 MOL      0.001547
     70 H30         8.4190    3.9740   -0.6540 hc        1 MOL      0.059874
     71 H31         9.7640    2.7610   -0.6110 hc        1 MOL      0.059874
     72 N7          7.6880    0.4400    1.7880 n         1 MOL     -0.303939
     73 C23         7.5430   -0.9680    2.3080 c3        1 MOL     -0.246885
     74 C24         6.4990   -1.8520    1.5640 c         1 MOL      0.655809
     75 O13         6.4680   -1.7420    0.3590 o         1 MOL     -0.452572
     76 H32         7.1730    1.1920    2.2170 hn        1 MOL      0.248800
     77 H33         7.3050   -0.8150    3.3600 h1        1 MOL      0.121248
     78 H34         8.5270   -1.4270    2.2600 h1        1 MOL      0.121248
     79 N8          5.6630   -2.6950    2.2390 n         1 MOL     -0.705875
     80 C25         4.9470   -3.7310    1.5640 c3        1 MOL      0.023877
     81 C26         3.8170   -3.1540    0.7190 c         1 MOL      0.542717
     82 O14         2.8020   -2.5770    1.2050 o         1 MOL     -0.500532
     83 C27         4.4590   -4.8270    2.5270 c3        1 MOL      0.350754
     84 C28         5.6300   -5.4590    3.2950 c3        1 MOL     -0.389665
     85 O15         4.0090   -5.9590    1.7640 oh        1 MOL     -0.636272
     86 H35         5.5820   -2.5760    3.2470 hn        1 MOL      0.370831
     87 H36         5.6140   -4.2320    0.8580 h1        1 MOL      0.140399
     88 H37         3.6300   -4.5320    3.1620 h1        1 MOL      0.016553
     89 H38         3.8250   -6.5920    2.4710 ho        1 MOL      0.395481
     90 H39         5.8190   -4.7190    4.0610 hc        1 MOL      0.100819
     91 H40         5.4650   -6.4030    3.8110 hc        1 MOL      0.100819
     92 H41         6.3700   -5.6560    2.5150 hc        1 MOL      0.100819
     93 N9          3.8590   -3.5830   -0.5570 n         1 MOL     -0.422090
     94 C29         2.9410   -3.2670   -1.6070 c3        1 MOL     -0.039892
     95 C30         1.4930   -3.8620   -1.5300 c         1 MOL      0.533056
     96 O16         0.9600   -4.4350   -2.4730 o         1 MOL     -0.537743
     97 C31         3.6380   -3.4430   -2.9890 c3        1 MOL     -0.042572
     98 C32         3.9420   -4.8790   -3.4360 c3        1 MOL      0.236035
     99 C33         5.0210   -2.6670   -2.9220 c3        1 MOL     -0.156927
    100 C34         4.4140   -4.8910   -4.9190 c3        1 MOL     -0.319842
    101 H42         4.7760   -3.8870   -0.8480 hn        1 MOL      0.241623
    102 H43         2.7340   -2.2200   -1.3790 h1        1 MOL      0.118058
    103 H44         2.9620   -2.9790   -3.7010 hc        1 MOL      0.055244
    104 H45         3.0320   -5.4840   -3.4480 hc        1 MOL     -0.021334
    105 H46         4.5690   -5.5240   -2.8330 hc        1 MOL     -0.021334
    106 H47         5.4260   -2.6720   -3.9310 hc        1 MOL      0.054588
    107 H48         4.7740   -1.6670   -2.5620 hc        1 MOL      0.054588
    108 H49         5.6340   -3.1400   -2.1570 hc        1 MOL      0.054588
    109 H50         3.8240   -4.1980   -5.5220 hc        1 MOL      0.070513
    110 H51         5.4930   -4.7600   -4.8630 hc        1 MOL      0.070513
    111 H52         4.2370   -5.8290   -5.4450 hc        1 MOL      0.070513
    112 N10         0.7400   -3.8490   -0.3590 n         1 MOL     -0.139926
    113 C35        -0.3290   -4.8180   -0.0560 c3        1 MOL     -0.441435
    114 C36        -1.6600   -4.5220   -0.7020 c         1 MOL      0.576266
    115 O17        -2.4940   -5.4200   -0.8050 o         1 MOL     -0.541915
    116 C37        -0.5030   -5.0670    1.4310 c3        1 MOL      0.310278
    117 C38        -0.7850   -3.8090    2.2570 c3        1 MOL     -0.408890
    118 O18         0.6800   -5.6770    1.8070 oh        1 MOL     -0.574399
    119 H53         1.0090   -3.3140    0.4530 hn        1 MOL      0.193509
    120 H54        -0.0210   -5.7410   -0.5470 h1        1 MOL      0.207665
    121 H55        -1.3960   -5.6980    1.4780 h1        1 MOL      0.050464
    122 H56         0.4950   -6.3880    2.4170 ho        1 MOL      0.379186
    123 H57        -1.7630   -3.3790    2.0620 hc        1 MOL      0.123301
    124 H58        -0.7560   -4.0140    3.3280 hc        1 MOL      0.123301
    125 H59         0.0270   -3.0830    2.1530 hc        1 MOL      0.123301
    126 N11        -1.8820   -3.3460   -1.2670 n         1 MOL     -0.312956
    127 C39        -3.1780   -2.8100   -1.6910 c3        1 MOL     -0.093542
    128 C40        -4.2330   -2.7450   -0.5510 c         1 MOL      0.482376
    129 O19        -4.2220   -3.5740    0.3820 o         1 MOL     -0.442906
    130 C41        -3.7160   -3.4310   -2.9390 c3        1 MOL      0.572828
    131 C42        -2.7340   -3.5560   -4.0790 c3        1 MOL     -0.446544
    132 O20        -4.8720   -2.8580   -3.3910 oh        1 MOL     -0.634643
    133 H60        -1.0450   -2.8790   -1.5790 hn        1 MOL      0.227184
    134 H61        -2.9920   -1.7870   -2.0250 h1        1 MOL      0.105573
    135 H62        -3.9080   -4.4460   -2.5850 h1        1 MOL     -0.087938
    136 H63        -5.4060   -3.5870   -3.7380 ho        1 MOL      0.380498
    137 H64        -2.3480   -2.5680   -4.3410 hc        1 MOL      0.110987
    138 H65        -1.9690   -4.2890   -3.7990 hc        1 MOL      0.110987
    139 H66        -3.3090   -3.9990   -4.8790 hc        1 MOL      0.110987
    140 N12        -5.2320   -1.8220   -0.6640 n         1 MOL     -0.542102
    141 C43        -6.4260   -1.9250    0.1910 c3        1 MOL      0.080583
    142 C44        -6.5330   -0.7910    1.2420 c         1 MOL      0.819593
    143 O21        -6.7150   -1.1230    2.4010 o         1 MOL     -0.581758
    144 C45        -7.7240   -2.0490   -0.5640 c3        1 MOL     -0.031486
    145 C46        -7.8900   -3.3230   -1.3790 c3        1 MOL      0.057735
    146 C47        -9.2030   -3.3410   -2.0430 c3        1 MOL     -0.081222
    147 C48        -9.3210   -4.7630   -2.6870 c3        1 MOL     -0.022233
    148 N13        -9.6410   -5.8280   -1.6350 n4        1 MOL     -0.317826
    149 H67        -5.3350   -1.3210   -1.5350 hn        1 MOL      0.327787
    150 H68        -6.3430   -2.8550    0.7470 h1        1 MOL      0.017943
    151 H69        -7.7880   -1.1290   -1.1560 hc        1 MOL     -0.004570
    152 H70        -8.5290   -2.0280    0.1590 hc        1 MOL     -0.004570
    153 H71        -7.7400   -4.1260   -0.6490 hc        1 MOL      0.024701
    154 H72        -7.1510   -3.2880   -2.1810 hc        1 MOL      0.024701
    155 H73        -9.3650   -2.6620   -2.8850 hc        1 MOL      0.064140
    156 H74        -9.9520   -3.1930   -1.2630 hc        1 MOL      0.064140
    157 H75        -8.3930   -4.9180   -3.2430 hx        1 MOL      0.090384
    158 H76       -10.1860   -4.7540   -3.3370 hx        1 MOL      0.090384
    159 H77        -9.8940   -6.7180   -2.0470 hn        1 MOL      0.271327
    160 H78        -8.9280   -6.0110   -0.9450 hn        1 MOL      0.271327
    161 H79       -10.4780   -5.5460   -1.1250 hn        1 MOL      0.271327
    162 N14        -6.4400    0.4790    0.7640 n         1 MOL     -0.838554
    163 C49        -6.3390    1.7130    1.5670 c3        1 MOL      0.165493
    164 C50        -7.3850    2.7420    1.1170 c         1 MOL      0.470487
    165 O22        -7.1580    3.6740    0.3240 o         1 MOL     -0.504723
    166 C51        -4.9650    2.3710    1.5090 c3        1 MOL      0.215015
    167 C52        -4.6460    3.2900    2.6170 c3        1 MOL      0.074990
    168 C53        -4.2450    2.4210    3.8690 c         1 MOL      0.505086
    169 O23        -4.8950    2.6380    4.9260 o         1 MOL     -0.668833
    170 O24        -3.2410    1.6770    3.8120 o         1 MOL     -0.668833
    171 H80        -6.2070    0.6010   -0.2130 hn        1 MOL      0.369270
    172 H81        -6.6300    1.4490    2.5800 h1        1 MOL      0.048448
    173 H82        -4.8440    2.9880    0.6170 hc        1 MOL     -0.052594
    174 H83        -4.1820    1.6130    1.5430 hc        1 MOL     -0.052594
    175 H84        -5.6070    3.7810    2.7200 hc        1 MOL     -0.051963
    176 H85        -3.7640    3.9210    2.4530 hc        1 MOL     -0.051963
    177 N15        -8.5760    2.6620    1.6650 n         1 MOL     -0.375123
    178 C54        -9.7600    3.5280    1.3180 c3        1 MOL     -0.011626
    179 H86       -10.0790    4.0770    2.2040 h1        1 MOL      0.057041
    180 H87        -9.4790    4.2330    0.5360 h1        1 MOL      0.057041
    181 H88       -10.5780    2.9000    0.9660 h1        1 MOL      0.057041
    182 H89        -8.7710    1.8670    2.2520 hn        1 MOL      0.257376
    183 Ca1        -0.8800    1.1380    4.5660 Ca        1 MOL      1.768544
    184 O25        -1.8910   -1.4920    4.8540 oh        1 MOL     -0.894394
    185 H90        -2.1630   -2.1990    5.4410 ho        1 MOL      0.440548
    186 H91        -2.5180   -1.5220    4.1360 ho        1 MOL      0.440548
    187 O26         1.0980   -0.1110    5.8090 oh        1 MOL     -0.894394
    188 H92         0.9980   -0.1580    6.7710 ho        1 MOL      0.440548
    189 H93         1.9820   -0.4340    5.6540 ho        1 MOL      0.440548
    190 O27        -1.1440    3.3580    2.9290 oh        1 MOL     -0.894394
    191 H94        -1.2330    4.3110    2.8850 ho        1 MOL      0.440548
    192 H95        -1.1080    3.0800    2.0120 ho        1 MOL      0.440548
    193 O28        -1.5500    0.2730    7.1660 oh        1 MOL     -0.894394
    194 H96        -1.6170    0.6220    8.0590 ho        1 MOL      0.440548
    195 H97        -1.3350   -0.6570    7.2890 ho        1 MOL      0.440548
@<TRIPOS>BOND
     1    1    2 1   
     2    1    4 1   
     3    1    5 1   
     4    1    6 1   
     5    2    3 2   
     6    2    7 1   
     7    7    8 1   
     8    7   15 1   
     9    8    9 1   
    10    8   11 1   
    11    8   16 1   
    12    9   10 2   
    13    9   19 1   
    14   11   12 1   
    15   11   17 1   
    16   11   18 1   
    17   12   13 1   
    18   12   14 1   
    19   19   20 1   
    20   19   28 1   
    21   20   21 1   
    22   20   23 1   
    23   20   29 1   
    24   21   22 2   
    25   21   41 1   
    26   23   24 1   
    27   23   30 1   
    28   23   31 1   
    29   24   25 1   
    30   24   32 1   
    31   24   33 1   
    32   25   26 1   
    33   25   34 1   
    34   25   35 1   
    35   26   27 1   
    36   26   36 1   
    37   26   37 1   
    38   27   38 1   
    39   27   39 1   
    40   27   40 1   
    41   41   42 1   
    42   41   49 1   
    43   42   43 1   
    44   42   45 1   
    45   42   50 1   
    46   43   44 2   
    47   43   53 1   
    48   45   46 1   
    49   45   51 1   
    50   45   52 1   
    51   46   47 1   
    52   46   48 1   
    53   53   54 1   
    54   53   57 1   
    55   54   55 1   
    56   54   58 1   
    57   54   59 1   
    58   55   56 2   
    59   55   60 1   
    60   60   61 1   
    61   60   68 1   
    62   61   62 1   
    63   61   64 1   
    64   61   69 1   
    65   62   63 2   
    66   62   72 1   
    67   64   65 1   
    68   64   70 1   
    69   64   71 1   
    70   65   66 1   
    71   65   67 1   
    72   72   73 1   
    73   72   76 1   
    74   73   74 1   
    75   73   77 1   
    76   73   78 1   
    77   74   75 2   
    78   74   79 1   
    79   79   80 1   
    80   79   86 1   
    81   80   81 1   
    82   80   83 1   
    83   80   87 1   
    84   81   82 2   
    85   81   93 1   
    86   83   84 1   
    87   83   85 1   
    88   83   88 1   
    89   84   90 1   
    90   84   91 1   
    91   84   92 1   
    92   85   89 1   
    93   93   94 1   
    94   93  101 1   
    95   94   95 1   
    96   94   97 1   
    97   94  102 1   
    98   95   96 2   
    99   95  112 1   
   100   97   98 1   
   101   97   99 1   
   102   97  103 1   
   103   98  100 1   
   104   98  104 1   
   105   98  105 1   
   106   99  106 1   
   107   99  107 1   
   108   99  108 1   
   109  100  109 1   
   110  100  110 1   
   111  100  111 1   
   112  112  113 1   
   113  112  119 1   
   114  113  114 1   
   115  113  116 1   
   116  113  120 1   
   117  114  115 2   
   118  114  126 1   
   119  116  117 1   
   120  116  118 1   
   121  116  121 1   
   122  117  123 1   
   123  117  124 1   
   124  117  125 1   
   125  118  122 1   
   126  126  127 1   
   127  126  133 1   
   128  127  128 1   
   129  127  130 1   
   130  127  134 1   
   131  128  129 2   
   132  128  140 1   
   133  130  131 1   
   134  130  132 1   
   135  130  135 1   
   136  131  137 1   
   137  131  138 1   
   138  131  139 1   
   139  132  136 1   
   140  140  141 1   
   141  140  149 1   
   142  141  142 1   
   143  141  144 1   
   144  141  150 1   
   145  142  143 2   
   146  142  162 1   
   147  144  145 1   
   148  144  151 1   
   149  144  152 1   
   150  145  146 1   
   151  145  153 1   
   152  145  154 1   
   153  146  147 1   
   154  146  155 1   
   155  146  156 1   
   156  147  148 1   
   157  147  157 1   
   158  147  158 1   
   159  148  159 1   
   160  148  160 1   
   161  148  161 1   
   162  162  163 1   
   163  162  171 1   
   164  163  164 1   
   165  163  166 1   
   166  163  172 1   
   167  164  165 2   
   168  164  177 1   
   169  166  167 1   
   170  166  173 1   
   171  166  174 1   
   172  167  168 1   
   173  167  175 1   
   174  167  176 1   
   175  168  169 1   
   176  168  170 1   
   177  177  178 1   
   178  177  182 1   
   179  178  179 1   
   180  178  180 1   
   181  178  181 1   
   182  184  185 1   
   183  184  186 1   
   184  187  188 1   
   185  187  189 1   
   186  190  191 1   
   187  190  192 1   
   188  193  194 1   
   189  193  195 1   
@<TRIPOS>SUBSTRUCTURE
     1 MOL         1 TEMP              0 ****  ****    0 ROOT
