@<TRIPOS>MOLECULE
MOL
  188   182     1     0     0
SMALL
resp


@<TRIPOS>ATOM
      1 C1          5.1800    0.2390    5.5100 c3        1 MOL     -0.340515
      2 C2          4.2480    0.1510    4.2580 c         1 MOL      0.642092
      3 O1          3.1030   -0.2410    4.3830 o         1 MOL     -0.579545
      4 H1          6.2180    0.3060    5.1850 hc        1 MOL      0.097386
      5 H2          4.9240    1.1240    6.0920 hc        1 MOL      0.097386
      6 H3          5.0480   -0.6520    6.1240 hc        1 MOL      0.097386
      7 N1          4.6650    0.6780    3.0440 n         1 MOL     -0.420041
      8 C3          4.0170    0.4410    1.7780 c3        1 MOL     -0.003022
      9 C4          4.2280   -1.0190    1.1520 c         1 MOL      0.400862
     10 O2          3.3780   -1.4610    0.3970 o         1 MOL     -0.613620
     11 C5          4.2390    1.5550    0.7090 c3        1 MOL     -0.094827
     12 C6          5.7180    1.9020    0.4740 c         1 MOL      0.571804
     13 O3          5.9520    3.0710    0.0070 o         1 MOL     -0.617506
     14 O4          6.5580    1.0190    0.6640 o         1 MOL     -0.617506
     15 H4          5.5960    1.0840    3.0290 hn        1 MOL      0.274421
     16 H5          2.9370    0.5570    1.9150 h1        1 MOL      0.082032
     17 H6          3.7550    2.4660    1.0400 hc        1 MOL      0.031337
     18 H7          3.8020    1.3130   -0.2650 hc        1 MOL      0.031337
     19 N2          5.2730   -1.7280    1.6540 n         1 MOL     -0.245629
     20 C7          5.5380   -3.1000    1.3240 c3        1 MOL     -0.036461
     21 C8          5.8840   -3.1890   -0.1630 c         1 MOL      0.593622
     22 O5          7.0010   -2.9730   -0.5850 o         1 MOL     -0.516068
     23 C9          6.6860   -3.5400    2.2470 c3        1 MOL     -0.173960
     24 C10         6.3170   -4.1590    3.6080 c3        1 MOL      0.229797
     25 C11         7.5250   -4.4270    4.5650 c3        1 MOL     -0.322765
     26 C12         8.2980   -5.7200    4.2290 c3        1 MOL      0.064074
     27 N3          7.5950   -6.9170    4.7590 n4        1 MOL     -0.265649
     28 H8          5.8500   -1.0860    2.1710 hn        1 MOL      0.224563
     29 H9          4.6310   -3.7100    1.4080 h1        1 MOL      0.039560
     30 H10         7.2660   -2.6390    2.4620 hc        1 MOL      0.079957
     31 H11         7.3580   -4.2150    1.7170 hc        1 MOL      0.079957
     32 H12         5.8000   -5.0980    3.4170 hc        1 MOL     -0.054072
     33 H13         5.5620   -3.5370    4.0850 hc        1 MOL     -0.054072
     34 H14         7.1450   -4.4420    5.5830 hc        1 MOL      0.121507
     35 H15         8.1600   -3.5680    4.3730 hc        1 MOL      0.121507
     36 H16         9.2530   -5.6850    4.7660 hx        1 MOL      0.091365
     37 H17         8.4950   -5.8330    3.1680 hx        1 MOL      0.091365
     38 H18         7.1660   -6.8270    5.6710 hn        1 MOL      0.296555
     39 H19         6.8120   -7.0440    4.1370 hn        1 MOL      0.296555
     40 H20         8.1540   -7.7540    4.6420 hn        1 MOL      0.296555
     41 N4          4.8680   -3.4950   -1.0040 n         1 MOL     -0.603782
     42 C13         5.0290   -3.6860   -2.4530 c3        1 MOL      0.088657
     43 C14         5.1260   -2.3130   -3.1400 c         1 MOL      0.471173
     44 O6          5.6700   -2.2320   -4.2540 o         1 MOL     -0.538379
     45 C15         3.8600   -4.5270   -3.0380 c3        1 MOL     -0.309270
     46 C16         2.4610   -3.8550   -2.7440 c         1 MOL      0.634858
     47 O7          2.2820   -3.2040   -1.7460 o         1 MOL     -0.625236
     48 O8          1.5840   -4.0700   -3.5980 o         1 MOL     -0.625236
     49 H21         3.8980   -3.4550   -0.7260 hn        1 MOL      0.316641
     50 H22         5.9970   -4.1300   -2.6790 h1        1 MOL      0.089851
     51 H23         3.8940   -5.5320   -2.6250 hc        1 MOL      0.086198
     52 H24         3.9850   -4.6740   -4.1130 hc        1 MOL      0.086198
     53 N5          4.5860   -1.2430   -2.5140 n         1 MOL     -0.327123
     54 C17         4.5480    0.1480   -2.9480 c3        1 MOL      0.059703
     55 C18         5.9590    0.8410   -2.9770 c         1 MOL      0.504531
     56 O9          6.9800    0.1720   -2.8250 o         1 MOL     -0.495008
     57 H25         4.1060   -1.4950   -1.6660 hn        1 MOL      0.399072
     58 H26         3.9410    0.7140   -2.2430 h1        1 MOL      0.011876
     59 H27         4.0130    0.2690   -3.8840 h1        1 MOL      0.011876
     60 N6          6.1140    2.1140   -3.1160 n         1 MOL     -0.474517
     61 C19         5.0690    3.1050   -3.4380 c3        1 MOL      0.312122
     62 C20         5.1340    4.3660   -2.5450 c         1 MOL      0.492258
     63 O10         6.2360    4.9620   -2.4560 o         1 MOL     -0.512768
     64 C21         5.1540    3.4620   -4.9330 c3        1 MOL     -0.344079
     65 C22         4.0990    4.5190   -5.3340 c         1 MOL      0.614962
     66 N7          2.7780    4.2320   -5.1140 n         1 MOL     -0.762193
     67 O11         4.4840    5.6090   -5.7950 o         1 MOL     -0.514640
     68 H28         7.0400    2.5060   -2.9900 hn        1 MOL      0.323934
     69 H29         4.0560    2.7190   -3.3350 h1        1 MOL     -0.007099
     70 H30         5.0900    2.5640   -5.5560 hc        1 MOL      0.102560
     71 H31         6.1320    3.9270   -5.0830 hc        1 MOL      0.102560
     72 H32         2.4350    3.2960   -4.9590 hn        1 MOL      0.347726
     73 H33         2.1420    4.9890   -5.3410 hn        1 MOL      0.347726
     74 N8          4.0570    4.7780   -1.8880 n         1 MOL     -0.430762
     75 C23         2.8210    4.0020   -1.6930 c3        1 MOL     -0.084541
     76 C24         1.8740    4.5410   -0.5860 c         1 MOL      0.733169
     77 O12         2.3030    5.3070    0.2360 o         1 MOL     -0.536725
     78 H34         4.1100    5.6540   -1.3940 hn        1 MOL      0.309138
     79 H35         3.0750    2.9920   -1.3810 h1        1 MOL      0.015558
     80 H36         2.3390    3.9550   -2.6740 h1        1 MOL      0.015558
     81 N9          0.6270    4.1990   -0.6130 n         1 MOL     -0.656854
     82 C25        -0.3490    4.4410    0.4270 c3        1 MOL      0.237000
     83 C26        -1.4150    3.3450    0.5680 c         1 MOL      0.512851
     84 O13        -1.2910    2.3160   -0.1220 o         1 MOL     -0.539090
     85 C27        -1.0650    5.8170    0.2450 c3        1 MOL     -0.179963
     86 C28        -1.8340    6.4880    1.4460 ca        1 MOL      0.153871
     87 C29        -3.0880    6.9510    1.2050 ca        1 MOL     -0.248206
     88 C30        -1.4190    6.5280    2.8240 ca        1 MOL     -0.248206
     89 C31        -3.8830    7.6570    2.1880 ca        1 MOL     -0.162091
     90 C32        -2.1550    7.3260    3.7510 ca        1 MOL     -0.162091
     91 C33        -3.3060    7.9590    3.4400 ca        1 MOL      0.277113
     92 O14        -3.9710    8.6300    4.4410 oh        1 MOL     -0.496815
     93 H37         0.3770    3.6290   -1.4120 hn        1 MOL      0.305070
     94 H38         0.2180    4.3710    1.3600 h1        1 MOL      0.044784
     95 H39        -1.7610    5.6540   -0.5650 hc        1 MOL      0.093731
     96 H40        -0.3520    6.5940   -0.0130 hc        1 MOL      0.093731
     97 H41        -3.3640    7.0070    0.1660 ha        1 MOL      0.144246
     98 H42        -0.4410    6.1340    3.0790 ha        1 MOL      0.144246
     99 H43        -4.8200    8.1200    1.9190 ha        1 MOL      0.134283
    100 H44        -1.7090    7.5420    4.7140 ha        1 MOL      0.134283
    101 H45        -3.5670    8.5750    5.3080 ho        1 MOL      0.370396
    102 N10        -2.3820    3.3910    1.4780 n         1 MOL     -0.377721
    103 C34        -3.4010    2.3950    1.6330 c3        1 MOL     -0.166611
    104 C35        -4.5020    2.7210    0.5870 c         1 MOL      0.633887
    105 O15        -4.7350    3.8930    0.1810 o         1 MOL     -0.513788
    106 C36        -4.0770    2.4980    3.0590 c3        1 MOL      0.252416
    107 C37        -3.3170    1.6210    4.0590 c3        1 MOL      0.046122
    108 C38        -4.1620    3.8910    3.7040 c3        1 MOL     -0.211876
    109 C39        -3.9530    1.4970    5.4820 c3        1 MOL     -0.181579
    110 H46        -2.5220    4.2850    1.9280 hn        1 MOL      0.185892
    111 H47        -2.9970    1.4230    1.3400 h1        1 MOL      0.074904
    112 H48        -5.0740    2.0940    2.9300 hc        1 MOL     -0.014674
    113 H49        -2.3030    2.0120    4.0770 hc        1 MOL     -0.006995
    114 H50        -3.3810    0.5930    3.7270 hc        1 MOL     -0.006995
    115 H51        -4.8660    4.0010    4.5200 hc        1 MOL      0.057436
    116 H52        -3.1910    4.1550    4.1280 hc        1 MOL      0.057436
    117 H53        -4.4050    4.6460    2.9500 hc        1 MOL      0.057436
    118 H54        -3.3640    0.7650    6.0440 hc        1 MOL      0.045762
    119 H55        -3.8820    2.4530    6.0040 hc        1 MOL      0.045762
    120 H56        -5.0210    1.3140    5.4080 hc        1 MOL      0.045762
    121 N11        -5.2950    1.7040    0.3000 n         1 MOL     -0.507496
    122 C40        -6.4070    1.7870   -0.6340 c3        1 MOL      0.110625
    123 C41        -6.5040    0.5080   -1.5440 c         1 MOL      0.528270
    124 O16        -5.8710   -0.5180   -1.2250 o         1 MOL     -0.521180
    125 C42        -7.7790    1.8570    0.1820 c3        1 MOL      0.064550
    126 O17        -8.1320    0.5800    0.7210 oh        1 MOL     -0.562024
    127 H57        -5.1050    0.7670    0.6380 hn        1 MOL      0.331792
    128 H58        -6.3170    2.7090   -1.2080 h1        1 MOL      0.041056
    129 H59        -8.5720    2.2040   -0.4810 h1        1 MOL      0.040426
    130 H60        -7.6930    2.6930    0.8730 h1        1 MOL      0.040426
    131 H61        -8.9160    0.8210    1.2020 ho        1 MOL      0.399062
    132 N12        -7.2990    0.4660   -2.6070 n         1 MOL     -0.491909
    133 C43        -7.1860   -0.5690   -3.7680 c3        1 MOL      0.109217
    134 C44        -7.7250   -1.9510   -3.3020 c         1 MOL      0.326285
    135 O18        -7.2740   -3.0300   -3.7800 o         1 MOL     -0.411266
    136 C45        -5.8250   -0.4590   -4.3820 c3        1 MOL     -0.307623
    137 H62        -7.9720    1.2120   -2.7000 hn        1 MOL      0.279274
    138 H63        -7.8170   -0.0890   -4.5260 h1        1 MOL      0.094772
    139 H64        -5.1170   -1.0120   -3.7610 hc        1 MOL      0.115276
    140 H65        -5.8580   -1.0340   -5.3110 hc        1 MOL      0.115276
    141 H66        -5.5510    0.5460   -4.6720 hc        1 MOL      0.115276
    142 N13        -8.5400   -1.9440   -2.2250 n         1 MOL     -0.396794
    143 C46        -8.9990   -3.0860   -1.4460 c3        1 MOL      0.396210
    144 C47        -7.8680   -4.0330   -1.0020 c         1 MOL      0.071301
    145 O19        -8.0690   -5.2680   -1.1990 o         1 MOL     -0.417250
    146 C48       -10.1300   -3.7870   -2.2050 c3        1 MOL     -0.269086
    147 H67        -8.8780   -1.0450   -1.9170 hn        1 MOL      0.237160
    148 H68        -9.4820   -2.5910   -0.6010 h1        1 MOL     -0.011670
    149 H69       -10.8060   -3.0180   -2.5690 hc        1 MOL      0.074808
    150 H70        -9.7930   -4.3590   -3.0660 hc        1 MOL      0.074808
    151 H71       -10.6940   -4.4140   -1.5190 hc        1 MOL      0.074808
    152 N14        -6.5980   -3.5920   -0.7260 n         1 MOL     -0.093735
    153 C49        -5.5030   -4.4730   -0.3890 c3        1 MOL      0.046018
    154 C50        -5.8280   -5.2560    0.9290 c         1 MOL      0.452982
    155 O20        -5.5090   -6.4380    0.9850 o         1 MOL     -0.529407
    156 C51        -4.1240   -3.7890   -0.2350 c3        1 MOL      0.118863
    157 C52        -3.0360   -4.5320    0.4240 c3        1 MOL     -0.030291
    158 C53        -1.6530   -3.7950    0.3570 c         1 MOL      0.672105
    159 O21        -1.4880   -2.7850    1.0510 o         1 MOL     -0.751660
    160 O22        -0.6680   -4.2110   -0.3230 o         1 MOL     -0.751660
    161 H72        -6.4620   -2.5880   -0.7020 hn        1 MOL      0.166555
    162 H73        -5.4500   -5.2540   -1.1540 h1        1 MOL      0.095656
    163 H74        -4.2620   -2.9000    0.3870 hc        1 MOL     -0.042430
    164 H75        -3.7390   -3.5010   -1.2140 hc        1 MOL     -0.042430
    165 H76        -2.9060   -5.5290    0.0140 hc        1 MOL     -0.012601
    166 H77        -3.3840   -4.6490    1.4490 hc        1 MOL     -0.012601
    167 N15        -6.4560   -4.6230    1.9360 n         1 MOL     -0.198291
    168 C54        -7.0770   -5.3470    3.0890 c3        1 MOL     -0.316811
    169 H78        -8.1340   -5.5130    2.8860 h1        1 MOL      0.128889
    170 H79        -6.5790   -6.3060    3.2280 h1        1 MOL      0.128889
    171 H80        -6.9710   -4.7480    3.9940 h1        1 MOL      0.128889
    172 H81        -6.5510   -3.6200    1.8300 hn        1 MOL      0.181785
    173 Ca1         0.8930   -2.1370    0.1410 Ca        1 MOL      1.855092
    174 O23         2.0470   -4.1610    1.5010 oh        1 MOL     -0.907675
    175 H82         2.1560   -4.3220    2.4360 ho        1 MOL      0.434105
    176 H83         2.3160   -4.9690    1.0690 ho        1 MOL      0.434105
    177 O24         1.2090   -1.4610    2.7610 oh        1 MOL     -0.907675
    178 H84         1.5170   -0.7720    3.3530 ho        1 MOL      0.434105
    179 H85         1.3790   -2.2730    3.2310 ho        1 MOL      0.434105
    180 O25        -0.8200   -1.7380   -1.9810 oh        1 MOL     -0.907675
    181 H86        -1.2460   -2.3740   -2.5620 ho        1 MOL      0.434105
    182 H87        -1.4810   -1.0630   -1.8330 ho        1 MOL      0.434105
    183 O26         1.5870   -0.2330   -1.6110 oh        1 MOL     -0.907675
    184 H88         1.5610   -0.3510   -2.5620 ho        1 MOL      0.434105
    185 H89         1.1490    0.5950   -1.4540 ho        1 MOL      0.434105
    186 O27        -0.2700    0.1920    0.8690 oh        1 MOL     -0.907675
    187 H90        -0.8090    0.9130    0.5530 ho        1 MOL      0.434105
    188 H91         0.0260    0.4820    1.7350 ho        1 MOL      0.434105
@<TRIPOS>BOND
     1    1    2 1   
     2    1    4 1   
     3    1    5 1   
     4    1    6 1   
     5    2    3 2   
     6    2    7 1   
     7    7    8 1   
     8    7   15 1   
     9    8    9 1   
    10    8   11 1   
    11    8   16 1   
    12    9   10 2   
    13    9   19 1   
    14   11   12 1   
    15   11   17 1   
    16   11   18 1   
    17   12   13 1   
    18   12   14 1   
    19   19   20 1   
    20   19   28 1   
    21   20   21 1   
    22   20   23 1   
    23   20   29 1   
    24   21   22 2   
    25   21   41 1   
    26   23   24 1   
    27   23   30 1   
    28   23   31 1   
    29   24   25 1   
    30   24   32 1   
    31   24   33 1   
    32   25   26 1   
    33   25   34 1   
    34   25   35 1   
    35   26   27 1   
    36   26   36 1   
    37   26   37 1   
    38   27   38 1   
    39   27   39 1   
    40   27   40 1   
    41   41   42 1   
    42   41   49 1   
    43   42   43 1   
    44   42   45 1   
    45   42   50 1   
    46   43   44 2   
    47   43   53 1   
    48   45   46 1   
    49   45   51 1   
    50   45   52 1   
    51   46   47 1   
    52   46   48 1   
    53   53   54 1   
    54   53   57 1   
    55   54   55 1   
    56   54   58 1   
    57   54   59 1   
    58   55   56 2   
    59   55   60 1   
    60   60   61 1   
    61   60   68 1   
    62   61   62 1   
    63   61   64 1   
    64   61   69 1   
    65   62   63 2   
    66   62   74 1   
    67   64   65 1   
    68   64   70 1   
    69   64   71 1   
    70   65   66 1   
    71   65   67 2   
    72   66   72 1   
    73   66   73 1   
    74   74   75 1   
    75   74   78 1   
    76   75   76 1   
    77   75   79 1   
    78   75   80 1   
    79   76   77 2   
    80   76   81 1   
    81   81   82 1   
    82   81   93 1   
    83   82   83 1   
    84   82   85 1   
    85   82   94 1   
    86   83   84 2   
    87   83  102 1   
    88   85   86 1   
    89   85   95 1   
    90   85   96 1   
    91   86   87 ar  
    92   86   88 ar  
    93   87   89 ar  
    94   87   97 1   
    95   88   90 ar  
    96   88   98 1   
    97   89   91 ar  
    98   89   99 1   
    99   90   91 ar  
   100   90  100 1   
   101   91   92 1   
   102   92  101 1   
   103  102  103 1   
   104  102  110 1   
   105  103  104 1   
   106  103  106 1   
   107  103  111 1   
   108  104  105 2   
   109  104  121 1   
   110  106  107 1   
   111  106  108 1   
   112  106  112 1   
   113  107  109 1   
   114  107  113 1   
   115  107  114 1   
   116  108  115 1   
   117  108  116 1   
   118  108  117 1   
   119  109  118 1   
   120  109  119 1   
   121  109  120 1   
   122  121  122 1   
   123  121  127 1   
   124  122  123 1   
   125  122  125 1   
   126  122  128 1   
   127  123  124 2   
   128  123  132 1   
   129  125  126 1   
   130  125  129 1   
   131  125  130 1   
   132  126  131 1   
   133  132  133 1   
   134  132  137 1   
   135  133  134 1   
   136  133  136 1   
   137  133  138 1   
   138  134  135 2   
   139  134  142 1   
   140  136  139 1   
   141  136  140 1   
   142  136  141 1   
   143  142  143 1   
   144  142  147 1   
   145  143  144 1   
   146  143  146 1   
   147  143  148 1   
   148  144  145 2   
   149  144  152 1   
   150  146  149 1   
   151  146  150 1   
   152  146  151 1   
   153  152  153 1   
   154  152  161 1   
   155  153  154 1   
   156  153  156 1   
   157  153  162 1   
   158  154  155 2   
   159  154  167 1   
   160  156  157 1   
   161  156  163 1   
   162  156  164 1   
   163  157  158 1   
   164  157  165 1   
   165  157  166 1   
   166  158  159 1   
   167  158  160 1   
   168  167  168 1   
   169  167  172 1   
   170  168  169 1   
   171  168  170 1   
   172  168  171 1   
   173  174  175 1   
   174  174  176 1   
   175  177  178 1   
   176  177  179 1   
   177  180  181 1   
   178  180  182 1   
   179  183  184 1   
   180  183  185 1   
   181  186  187 1   
   182  186  188 1   
@<TRIPOS>SUBSTRUCTURE
     1 MOL         1 TEMP              0 ****  ****    0 ROOT
