@<TRIPOS>MOLECULE
MOL
  189   185     1     0     0
SMALL
resp


@<TRIPOS>ATOM
      1 C1         -3.9370   -4.3960   -3.2230 c3        1 MOL     -0.477334
      2 C2         -4.9580   -3.7470   -2.2880 c         1 MOL      0.618207
      3 O1         -4.6270   -3.4430   -1.1440 o         1 MOL     -0.455513
      4 H1         -4.4510   -4.8110   -4.0900 hc        1 MOL      0.121365
      5 H2         -3.2180   -3.6460   -3.5540 hc        1 MOL      0.121365
      6 H3         -3.4150   -5.1940   -2.6960 hc        1 MOL      0.121365
      7 N1         -6.1750   -3.5500   -2.6630 n         1 MOL     -0.481632
      8 C3         -7.0180   -2.4700   -2.1960 c3        1 MOL      0.184468
      9 C4         -6.1710   -1.1990   -1.7940 c         1 MOL      0.664347
     10 O2         -5.7180   -1.0490   -0.6750 o         1 MOL     -0.624253
     11 C5         -8.0060   -2.8740   -1.1000 c3        1 MOL     -0.374089
     12 C6         -7.3880   -3.6100    0.1010 c         1 MOL      0.811028
     13 O3         -6.7500   -3.0260    1.0110 o         1 MOL     -0.722396
     14 O4         -7.6990   -4.7870    0.2380 o         1 MOL     -0.722396
     15 H4         -6.3790   -3.9670   -3.5570 hn        1 MOL      0.278606
     16 H5         -7.6110   -2.1400   -3.0470 h1        1 MOL     -0.002419
     17 H6         -8.7370   -3.6160   -1.4460 hc        1 MOL      0.075893
     18 H7         -8.2650   -1.8860   -0.7400 hc        1 MOL      0.075893
     19 N2         -5.9460   -0.4660   -2.8330 n         1 MOL     -0.817115
     20 C7         -5.1580    0.8210   -2.9460 c3        1 MOL      0.604597
     21 C8         -5.8240    1.9770   -2.2670 c         1 MOL      0.359843
     22 O5         -6.3970    2.8430   -2.9590 o         1 MOL     -0.577787
     23 C9         -3.6170    0.6810   -2.5330 c3        1 MOL     -0.012899
     24 C10        -2.8080    1.9010   -2.9150 c3        1 MOL      0.058014
     25 C11        -3.0150   -0.6010   -3.2030 c3        1 MOL     -0.197691
     26 C12        -3.0340    2.3000   -4.4560 c3        1 MOL     -0.355864
     27 H8         -6.5880   -0.6360   -3.5970 hn        1 MOL      0.333492
     28 H9         -5.3280    1.1310   -3.9750 h1        1 MOL     -0.059506
     29 H10        -3.5170    0.6180   -1.4510 hc        1 MOL     -0.074551
     30 H11        -1.7350    1.7010   -2.8340 hc        1 MOL      0.072246
     31 H12        -3.0660    2.8250   -2.3920 hc        1 MOL      0.072246
     32 H13        -3.3430   -0.6400   -4.2440 hc        1 MOL      0.036976
     33 H14        -1.9330   -0.4410   -3.1730 hc        1 MOL      0.036976
     34 H15        -3.1820   -1.5070   -2.6180 hc        1 MOL      0.036976
     35 H16        -4.0140    2.7590   -4.5870 hc        1 MOL      0.066322
     36 H17        -2.2550    3.0370   -4.6400 hc        1 MOL      0.066322
     37 H18        -2.8830    1.4310   -5.0850 hc        1 MOL      0.066322
     38 N3         -6.0040    1.9890   -0.9460 n         1 MOL     -0.219448
     39 C13        -6.8860    3.0210   -0.2540 c3        1 MOL     -0.053126
     40 C14        -6.2590    4.4210    0.0200 c         1 MOL      0.539969
     41 O6         -6.9050    5.4530   -0.3080 o         1 MOL     -0.532204
     42 C15        -7.4000    2.3950    1.0720 c3        1 MOL     -0.205437
     43 C16        -8.5880    3.1240    1.5880 c         1 MOL      0.729035
     44 O7         -9.7080    2.8780    1.1060 o         1 MOL     -0.725307
     45 O8         -8.4030    3.9900    2.4940 o         1 MOL     -0.725307
     46 H19        -5.6920    1.2320   -0.3570 hn        1 MOL      0.279322
     47 H20        -7.7200    3.2410   -0.9240 h1        1 MOL      0.107769
     48 H21        -6.5620    2.3400    1.7720 hc        1 MOL      0.064518
     49 H22        -7.7210    1.3630    0.8830 hc        1 MOL      0.064518
     50 N4         -4.9940    4.5170    0.5660 n         1 MOL     -0.535219
     51 C17        -3.9890    3.5210    0.7700 c3        1 MOL      0.218831
     52 C18        -2.9200    3.9280    1.8440 c         1 MOL      0.548269
     53 O9         -2.6650    5.1300    2.0690 o         1 MOL     -0.590997
     54 H23        -4.7830    5.4670    0.8090 hn        1 MOL      0.295566
     55 H24        -3.4270    3.4410   -0.1630 h1        1 MOL     -0.005701
     56 H25        -4.3900    2.5420    1.0360 h1        1 MOL     -0.005701
     57 N5         -2.3940    3.0130    2.6250 n         1 MOL     -0.364895
     58 C19        -2.6420    1.5430    2.7250 c3        1 MOL      0.197488
     59 C20        -2.5910    0.7740    1.4080 c         1 MOL      0.021020
     60 O10        -3.6120    0.2980    0.9090 o         1 MOL     -0.459258
     61 C21        -3.9690    1.4440    3.4900 c3        1 MOL     -0.501283
     62 C22        -4.5040    0.0720    3.8340 c         1 MOL      0.931833
     63 O11        -3.9100   -0.5640    4.7260 o         1 MOL     -0.755135
     64 O12        -5.4170   -0.4550    3.1510 o         1 MOL     -0.755135
     65 H26        -1.5800    3.3870    3.1020 hn        1 MOL      0.215685
     66 H27        -1.8470    1.0720    3.3030 h1        1 MOL      0.122795
     67 H28        -4.7920    1.9450    2.9700 hc        1 MOL      0.126997
     68 H29        -3.8680    2.0010    4.4230 hc        1 MOL      0.126997
     69 N6         -1.4440    0.6230    0.7130 n         1 MOL     -0.154591
     70 C23        -0.1470    1.3120    0.9930 c3        1 MOL     -0.116664
     71 C24         0.1620    2.5980    0.1860 c         1 MOL      0.506074
     72 O13        -0.6780    3.1530   -0.5280 o         1 MOL     -0.496497
     73 H30        -1.5680    0.1120   -0.1500 hn        1 MOL      0.286369
     74 H31         0.5760    0.5550    0.7060 h1        1 MOL      0.089816
     75 H32        -0.0620    1.4410    2.0760 h1        1 MOL      0.089816
     76 N7          1.3820    3.1660    0.3670 n         1 MOL     -0.396303
     77 C25         1.6770    4.4980   -0.1620 c3        1 MOL     -0.057084
     78 C26         2.3400    4.4100   -1.6040 c         1 MOL      0.551752
     79 O14         2.0720    5.2770   -2.4580 o         1 MOL     -0.518166
     80 C27         2.6660    5.1080    0.8000 c3        1 MOL      0.125674
     81 C28         2.1830    6.4950    1.3090 c3        1 MOL     -0.273359
     82 C29         2.7610    6.8300    2.6320 c         1 MOL      0.671973
     83 N8          2.1170    6.3140    3.6940 n         1 MOL     -0.815841
     84 O15         3.7480    7.5170    2.8270 o         1 MOL     -0.561713
     85 H33         1.9790    2.8760    1.1240 hn        1 MOL      0.258260
     86 H34         0.7380    5.0560   -0.1990 h1        1 MOL      0.122847
     87 H35         3.6760    5.2160    0.4000 hc        1 MOL      0.002551
     88 H36         2.6970    4.4490    1.6680 hc        1 MOL      0.002551
     89 H37         1.0930    6.5380    1.3870 hc        1 MOL      0.088034
     90 H38         2.4330    7.3110    0.6230 hc        1 MOL      0.088034
     91 H39         1.3330    5.7010    3.5250 hn        1 MOL      0.370731
     92 H40         2.3410    6.6470    4.6270 hn        1 MOL      0.370731
     93 N9          3.0880    3.3310   -1.8730 n         1 MOL     -0.393295
     94 C30         3.3380    2.8420   -3.2400 c3        1 MOL     -0.199567
     95 C31         4.6050    2.0250   -3.3780 c         1 MOL      0.617125
     96 O16         5.0380    1.7210   -4.4930 o         1 MOL     -0.560851
     97 C32         2.1820    1.9080   -3.6580 c3        1 MOL      0.153445
     98 C33         0.8960    2.5450   -4.0760 c3        1 MOL     -0.246415
     99 C34         1.7560    0.7580   -2.7650 c3        1 MOL     -0.246415
    100 H41         3.0980    2.6520   -1.1290 hn        1 MOL      0.210518
    101 H42         3.4810    3.6550   -3.9520 h1        1 MOL      0.162720
    102 H43         2.5320    1.4610   -4.5900 hc        1 MOL      0.033744
    103 H44         0.3230    2.6950   -3.1670 hc        1 MOL      0.066505
    104 H45         1.0840    3.4770   -4.6180 hc        1 MOL      0.066505
    105 H46         0.4240    1.8880   -4.8070 hc        1 MOL      0.066505
    106 H47         1.4940    1.1360   -1.7710 hc        1 MOL      0.066505
    107 H48         0.7610    0.4210   -3.0430 hc        1 MOL      0.066505
    108 H49         2.4950   -0.0430   -2.8000 hc        1 MOL      0.066505
    109 N10         5.3010    1.6960   -2.2320 n         1 MOL     -0.303578
    110 C35         6.6400    1.0010   -2.1620 c3        1 MOL     -0.223453
    111 C36         6.6100   -0.3000   -1.3930 c         1 MOL      0.838138
    112 O17         7.2850   -1.2380   -1.7080 o         1 MOL     -0.605337
    113 C37         7.6290    1.9890   -1.3980 c3        1 MOL     -0.084194
    114 C38         7.6730    3.3420   -1.9960 c         1 MOL      0.539671
    115 N11         7.9550    3.4610   -3.2760 n         1 MOL     -0.732082
    116 O18         7.4640    4.3470   -1.3060 o         1 MOL     -0.544595
    117 H50         4.9840    2.0840   -1.3540 hn        1 MOL      0.207873
    118 H51         7.1060    0.8830   -3.1450 h1        1 MOL      0.137524
    119 H52         8.6130    1.5770   -1.6020 hc        1 MOL      0.076979
    120 H53         7.5080    2.1140   -0.3150 hc        1 MOL      0.076979
    121 H54         8.1790    2.7400   -3.9480 hn        1 MOL      0.357877
    122 H55         7.9950    4.4310   -3.5440 hn        1 MOL      0.357877
    123 N12         5.8730   -0.4660   -0.2900 n         1 MOL     -0.825529
    124 C39         6.0090   -1.6100    0.6510 c3        1 MOL      0.394315
    125 C40         4.6630   -2.3480    0.8890 c         1 MOL      0.550060
    126 O19         3.5620   -1.8020    0.8090 o         1 MOL     -0.522953
    127 C41         6.6210   -1.1780    2.0180 c3        1 MOL     -0.304103
    128 C42         8.0560   -0.5710    1.9310 ca        1 MOL      0.100080
    129 C43         9.1270   -1.3660    1.4680 ca        1 MOL     -0.124488
    130 C44         8.2820    0.7410    2.1720 ca        1 MOL     -0.124488
    131 C45        10.4300   -0.8680    1.4650 ca        1 MOL     -0.324004
    132 C46         9.5640    1.2410    2.0850 ca        1 MOL     -0.324004
    133 C47        10.6610    0.4410    1.8140 ca        1 MOL      0.371924
    134 O20        11.9050    1.0190    1.7210 oh        1 MOL     -0.508631
    135 H56         5.4560    0.3650    0.1070 hn        1 MOL      0.353531
    136 H57         6.7360   -2.3330    0.2790 h1        1 MOL      0.004369
    137 H58         6.7650   -2.0220    2.6930 hc        1 MOL      0.122959
    138 H59         5.8940   -0.4770    2.4230 hc        1 MOL      0.122959
    139 H60         8.9660   -2.3860    1.1630 ha        1 MOL      0.125953
    140 H61         7.5270    1.3960    2.5820 ha        1 MOL      0.125953
    141 H62        11.2860   -1.4470    1.1560 ha        1 MOL      0.151730
    142 H63         9.7200    2.2330    2.4680 ha        1 MOL      0.151730
    143 H64        12.5600    0.3550    1.4890 ho        1 MOL      0.356700
    144 N13         4.8670   -3.6530    1.2120 n         1 MOL     -0.709710
    145 C48         3.8670   -4.7230    1.4940 c3        1 MOL      0.266462
    146 C49         2.9260   -5.0760    0.3090 c         1 MOL      0.100525
    147 O21         2.3020   -6.1590    0.3690 o         1 MOL     -0.446357
    148 C50         3.1390   -4.3850    2.7330 c3        1 MOL     -0.058184
    149 C51         4.0510   -3.9800    3.8570 c3        1 MOL     -0.176070
    150 C52         3.3500   -3.7670    5.2280 c         1 MOL      0.668563
    151 O22         2.5800   -2.7900    5.4010 o         1 MOL     -0.721635
    152 O23         3.7740   -4.4400    6.2060 o         1 MOL     -0.721635
    153 H65         5.8330   -3.9340    1.0770 hn        1 MOL      0.312849
    154 H66         4.4740   -5.6080    1.7190 h1        1 MOL      0.053011
    155 H67         2.5790   -5.2640    3.0470 hc        1 MOL      0.070725
    156 H68         2.4960   -3.5250    2.5770 hc        1 MOL      0.070725
    157 H69         4.5220   -3.0190    3.6760 hc        1 MOL      0.009664
    158 H70         4.8560   -4.6950    4.0280 hc        1 MOL      0.009664
    159 N14         2.7850   -4.2630   -0.7320 n         1 MOL     -0.025094
    160 C53         1.7440   -4.4930   -1.7670 c3        1 MOL     -0.143106
    161 C54         2.2610   -5.2650   -3.0540 c         1 MOL      0.508883
    162 O24         1.5280   -5.9070   -3.7720 o         1 MOL     -0.547843
    163 C55         0.8190   -3.2790   -2.0620 c3        1 MOL      0.007447
    164 C56         0.2270   -2.5230   -0.8460 c3        1 MOL      0.286028
    165 C57        -0.9030   -3.2040   -0.0310 c         1 MOL      0.565978
    166 O25        -2.0260   -2.6840    0.2020 o         1 MOL     -0.644472
    167 O26        -0.7120   -4.3400    0.4860 o         1 MOL     -0.644472
    168 H71         3.4990   -3.5740   -0.8750 hn        1 MOL      0.184318
    169 H72         0.9390   -5.1890   -1.5410 h1        1 MOL      0.149194
    170 H73         0.1060   -3.4670   -2.8620 hc        1 MOL     -0.014200
    171 H74         1.4190   -2.5540   -2.6200 hc        1 MOL     -0.014200
    172 H75        -0.1550   -1.5790   -1.2280 hc        1 MOL     -0.110188
    173 H76         1.0820   -2.2440   -0.2520 hc        1 MOL     -0.110188
    174 N15         3.5250   -5.1950   -3.3610 n         1 MOL     -0.298133
    175 C58         4.1840   -6.0830   -4.3640 c3        1 MOL     -0.148265
    176 H77         3.4410   -6.4350   -5.0790 h1        1 MOL      0.084223
    177 H78         4.9580   -5.5250   -4.8890 h1        1 MOL      0.084223
    178 H79         4.6310   -6.9360   -3.8550 h1        1 MOL      0.084223
    179 H80         4.0800   -4.5860   -2.7750 hn        1 MOL      0.211531
    180 Ca1        -4.3480   -2.1920    1.3700 Ca        1 MOL      1.726392
    181 O27        -4.7650   -3.6040    3.6100 oh        1 MOL     -0.881688
    182 H81        -5.3470   -4.3570    3.6820 ho        1 MOL      0.416921
    183 H82        -4.5510   -3.3610    4.5150 ho        1 MOL      0.416921
    184 O28        -3.4890   -4.9100    1.3480 oh        1 MOL     -0.881688
    185 H83        -3.2900   -5.0850    2.2630 ho        1 MOL      0.416921
    186 H84        -2.6490   -4.6330    0.9720 ho        1 MOL      0.416921
    187 O29        -2.4450   -1.7980    3.0520 oh        1 MOL     -0.881688
    188 H85        -2.7580   -1.5440    3.9220 ho        1 MOL      0.416921
    189 H86        -1.5270   -2.0490    3.1970 ho        1 MOL      0.416921
@<TRIPOS>BOND
     1    1    2 1   
     2    1    4 1   
     3    1    5 1   
     4    1    6 1   
     5    2    3 2   
     6    2    7 1   
     7    7    8 1   
     8    7   15 1   
     9    8    9 1   
    10    8   11 1   
    11    8   16 1   
    12    9   10 2   
    13    9   19 1   
    14   11   12 1   
    15   11   17 1   
    16   11   18 1   
    17   12   13 1   
    18   12   14 1   
    19   19   20 1   
    20   19   27 1   
    21   20   21 1   
    22   20   23 1   
    23   20   28 1   
    24   21   22 2   
    25   21   38 1   
    26   23   24 1   
    27   23   25 1   
    28   23   29 1   
    29   24   26 1   
    30   24   30 1   
    31   24   31 1   
    32   25   32 1   
    33   25   33 1   
    34   25   34 1   
    35   26   35 1   
    36   26   36 1   
    37   26   37 1   
    38   38   39 1   
    39   38   46 1   
    40   39   40 1   
    41   39   42 1   
    42   39   47 1   
    43   40   41 2   
    44   40   50 1   
    45   42   43 1   
    46   42   48 1   
    47   42   49 1   
    48   43   44 1   
    49   43   45 1   
    50   50   51 1   
    51   50   54 1   
    52   51   52 1   
    53   51   55 1   
    54   51   56 1   
    55   52   53 2   
    56   52   57 1   
    57   57   58 1   
    58   57   65 1   
    59   58   59 1   
    60   58   61 1   
    61   58   66 1   
    62   59   60 2   
    63   59   69 1   
    64   61   62 1   
    65   61   67 1   
    66   61   68 1   
    67   62   63 1   
    68   62   64 1   
    69   69   70 1   
    70   69   73 1   
    71   70   71 1   
    72   70   74 1   
    73   70   75 1   
    74   71   72 2   
    75   71   76 1   
    76   76   77 1   
    77   76   85 1   
    78   77   78 1   
    79   77   80 1   
    80   77   86 1   
    81   78   79 2   
    82   78   93 1   
    83   80   81 1   
    84   80   87 1   
    85   80   88 1   
    86   81   82 1   
    87   81   89 1   
    88   81   90 1   
    89   82   83 1   
    90   82   84 2   
    91   83   91 1   
    92   83   92 1   
    93   93   94 1   
    94   93  100 1   
    95   94   95 1   
    96   94   97 1   
    97   94  101 1   
    98   95   96 2   
    99   95  109 1   
   100   97   98 1   
   101   97   99 1   
   102   97  102 1   
   103   98  103 1   
   104   98  104 1   
   105   98  105 1   
   106   99  106 1   
   107   99  107 1   
   108   99  108 1   
   109  109  110 1   
   110  109  117 1   
   111  110  111 1   
   112  110  113 1   
   113  110  118 1   
   114  111  112 2   
   115  111  123 1   
   116  113  114 1   
   117  113  119 1   
   118  113  120 1   
   119  114  115 1   
   120  114  116 2   
   121  115  121 1   
   122  115  122 1   
   123  123  124 1   
   124  123  135 1   
   125  124  125 1   
   126  124  127 1   
   127  124  136 1   
   128  125  126 2   
   129  125  144 1   
   130  127  128 1   
   131  127  137 1   
   132  127  138 1   
   133  128  129 ar  
   134  128  130 ar  
   135  129  131 ar  
   136  129  139 1   
   137  130  132 ar  
   138  130  140 1   
   139  131  133 ar  
   140  131  141 1   
   141  132  133 ar  
   142  132  142 1   
   143  133  134 1   
   144  134  143 1   
   145  144  145 1   
   146  144  153 1   
   147  145  146 1   
   148  145  148 1   
   149  145  154 1   
   150  146  147 2   
   151  146  159 1   
   152  148  149 1   
   153  148  155 1   
   154  148  156 1   
   155  149  150 1   
   156  149  157 1   
   157  149  158 1   
   158  150  151 1   
   159  150  152 1   
   160  159  160 1   
   161  159  168 1   
   162  160  161 1   
   163  160  163 1   
   164  160  169 1   
   165  161  162 2   
   166  161  174 1   
   167  163  164 1   
   168  163  170 1   
   169  163  171 1   
   170  164  165 1   
   171  164  172 1   
   172  164  173 1   
   173  165  166 1   
   174  165  167 1   
   175  174  175 1   
   176  174  179 1   
   177  175  176 1   
   178  175  177 1   
   179  175  178 1   
   180  181  182 1   
   181  181  183 1   
   182  184  185 1   
   183  184  186 1   
   184  187  188 1   
   185  187  189 1   
@<TRIPOS>SUBSTRUCTURE
     1 MOL         1 TEMP              0 ****  ****    0 ROOT
