@<TRIPOS>MOLECULE
MOL
  189   185     1     0     0
SMALL
resp


@<TRIPOS>ATOM
      1 C1          9.2780   -0.4010    3.1440 c3        1 MOL     -0.654949
      2 C2          8.2090   -0.4060    2.0100 c         1 MOL      0.894557
      3 O1          7.0150   -0.6660    2.2050 o         1 MOL     -0.714948
      4 H1          8.8190   -0.7290    4.0770 hc        1 MOL      0.169116
      5 H2         10.0910   -1.0800    2.8820 hc        1 MOL      0.169116
      6 H3          9.6720    0.6080    3.2680 hc        1 MOL      0.169116
      7 N1          8.6570   -0.1610    0.7470 n         1 MOL     -0.695164
      8 C3          7.9280    0.2380   -0.4830 c3        1 MOL      0.034730
      9 C4          7.1980   -0.9570   -1.2510 c         1 MOL      0.589110
     10 O2          7.1640   -0.9940   -2.4770 o         1 MOL     -0.436934
     11 C5          8.8190    1.0550   -1.4330 c3        1 MOL     -0.164466
     12 C6          9.9720    0.2330   -2.0310 c         1 MOL      0.636400
     13 O3         10.3250    0.6490   -3.1390 o         1 MOL     -0.622223
     14 O4         10.3740   -0.8740   -1.6130 o         1 MOL     -0.622223
     15 H4          9.6240    0.1060    0.6360 hn        1 MOL      0.289421
     16 H5          7.1880    0.9120   -0.0490 h1        1 MOL      0.055699
     17 H6          9.2820    1.9450   -0.9870 hc        1 MOL      0.075425
     18 H7          8.1570    1.3770   -2.2330 hc        1 MOL      0.075425
     19 N2          6.7380   -1.9630   -0.4910 n         1 MOL     -0.560130
     20 C7          6.1010   -3.1640   -1.0340 c3        1 MOL      0.197994
     21 C8          4.6460   -3.2190   -1.5370 c         1 MOL      0.300898
     22 O5          4.3440   -4.0680   -2.4360 o         1 MOL     -0.520471
     23 C9          6.2820   -4.2490    0.0620 c3        1 MOL     -0.126623
     24 C10         7.7640   -4.5420    0.4490 c3        1 MOL      0.182432
     25 C11         8.0130   -5.4670    1.6240 c3        1 MOL     -0.022665
     26 C12         9.4410   -5.5180    1.9820 c3        1 MOL      0.074720
     27 N3          9.5270   -6.1830    3.3360 n4        1 MOL     -0.177978
     28 H8          6.8630   -1.7830    0.5000 hn        1 MOL      0.393305
     29 H9          6.6180   -3.2540   -1.9930 h1        1 MOL      0.090361
     30 H10         5.9120   -5.1520   -0.4170 hc        1 MOL      0.030792
     31 H11         5.8170   -3.9740    1.0060 hc        1 MOL      0.030792
     32 H12         8.1160   -3.5510    0.7500 hc        1 MOL     -0.041791
     33 H13         8.2730   -4.8210   -0.4650 hc        1 MOL     -0.041791
     34 H14         7.5830   -6.4410    1.3890 hc        1 MOL      0.010473
     35 H15         7.4860   -5.1090    2.4990 hc        1 MOL      0.010473
     36 H16         9.9810   -4.5810    2.0150 hx        1 MOL      0.063471
     37 H17         9.9270   -6.1860    1.2670 hx        1 MOL      0.063471
     38 H18         8.8360   -6.9110    3.3820 hn        1 MOL      0.251087
     39 H19        10.4470   -6.5890    3.4280 hn        1 MOL      0.251087
     40 H20         9.3730   -5.5990    4.1470 hn        1 MOL      0.251087
     41 N4          3.7390   -2.3420   -1.1430 n         1 MOL     -0.160397
     42 C13         3.6140   -1.4430    0.0300 c3        1 MOL     -0.136344
     43 C14         3.7550   -0.0110   -0.4970 c         1 MOL      0.259870
     44 O6          3.6570    0.2610   -1.6930 o         1 MOL     -0.443486
     45 C15         2.2620   -1.6930    0.7510 c3        1 MOL     -0.060018
     46 C16         1.1290   -2.1410   -0.1190 c         1 MOL      0.599636
     47 O7          0.8030   -1.4040   -1.1200 o         1 MOL     -0.653522
     48 O8          0.6620   -3.2620    0.0680 o         1 MOL     -0.653522
     49 H21         2.9350   -2.2950   -1.7480 hn        1 MOL      0.312535
     50 H22         4.3690   -1.5880    0.8090 h1        1 MOL      0.131893
     51 H23         1.9820   -0.7900    1.2870 hc        1 MOL      0.027859
     52 H24         2.4420   -2.4650    1.4950 hc        1 MOL      0.027859
     53 N5          4.0340    0.9650    0.3200 n         1 MOL     -0.265744
     54 C17         3.9770    2.3770    0.0160 c3        1 MOL     -0.035696
     55 C18         2.5180    2.9010   -0.3200 c         1 MOL      0.465623
     56 O9          1.4970    2.2010   -0.1880 o         1 MOL     -0.561144
     57 H25         3.9610    0.8180    1.3130 hn        1 MOL      0.290684
     58 H26         4.7180    2.5530   -0.7580 h1        1 MOL      0.072552
     59 H27         4.2920    2.9470    0.8920 h1        1 MOL      0.072552
     60 N6          2.4710    4.1920   -0.7630 n         1 MOL     -0.445064
     61 C19         1.2820    5.0890   -0.9570 c3        1 MOL      0.303614
     62 C20         1.6260    6.4750   -0.4060 c         1 MOL      0.492450
     63 O10         2.8020    6.8150   -0.2920 o         1 MOL     -0.560763
     64 C21         1.0040    5.2990   -2.4370 c3        1 MOL     -0.400716
     65 C22         0.5700    3.9730   -3.0540 c         1 MOL      0.715218
     66 O11         1.1550    3.5380   -4.0530 o         1 MOL     -0.657499
     67 O12        -0.3550    3.3530   -2.5150 o         1 MOL     -0.657499
     68 H28         3.2910    4.7660   -0.7980 hn        1 MOL      0.269923
     69 H29         0.4100    4.6330   -0.4860 h1        1 MOL      0.045423
     70 H30         1.9670    5.5730   -2.8500 hc        1 MOL      0.095893
     71 H31         0.2440    6.0670   -2.5930 hc        1 MOL      0.095893
     72 N7          0.7410    7.4300   -0.1470 n         1 MOL     -0.460258
     73 C23        -0.7710    7.3290   -0.1880 c3        1 MOL     -0.030545
     74 C24        -1.3780    6.2780    0.8260 c         1 MOL      0.665884
     75 O13        -0.9720    6.1800    1.9560 o         1 MOL     -0.538403
     76 H32         1.0790    8.3620    0.0660 hn        1 MOL      0.328458
     77 H33        -1.1480    7.1450   -1.1930 h1        1 MOL      0.056283
     78 H34        -1.2090    8.2860    0.1030 h1        1 MOL      0.056283
     79 N8         -2.3100    5.5040    0.2960 n         1 MOL     -0.829510
     80 C25        -2.9960    4.4850    1.1730 c3        1 MOL      0.281307
     81 C26        -2.0250    3.3410    1.3310 c         1 MOL      0.527373
     82 O14        -1.4190    2.8980    0.3850 o         1 MOL     -0.543986
     83 C27        -4.3290    3.9860    0.6360 c3        1 MOL      0.392150
     84 C28        -5.2880    5.2260    0.4170 c3        1 MOL     -0.363537
     85 O15        -4.8950    3.1360    1.6230 oh        1 MOL     -0.722868
     86 H35        -2.6150    5.8080   -0.6250 hn        1 MOL      0.388415
     87 H36        -3.1500    4.8070    2.1930 h1        1 MOL      0.029568
     88 H37        -4.1960    3.4740   -0.3120 h1        1 MOL     -0.008275
     89 H38        -5.8010    2.9040    1.4030 ho        1 MOL      0.425352
     90 H39        -5.1790    5.9760    1.2100 hc        1 MOL      0.092580
     91 H40        -5.0880    5.5940   -0.5770 hc        1 MOL      0.092580
     92 H41        -6.3350    4.9370    0.4700 hc        1 MOL      0.092580
     93 N9         -1.8790    2.9280    2.5920 n         1 MOL     -0.408236
     94 C29        -0.9770    1.8690    3.0860 c3        1 MOL      0.005706
     95 C30        -1.2110    0.5000    2.3030 c         1 MOL      0.296179
     96 O16        -0.6640    0.3340    1.2030 o         1 MOL     -0.393223
     97 C31         0.5060    2.2480    3.2020 c3        1 MOL      0.121054
     98 C32         0.7880    3.6730    3.9730 c3        1 MOL      0.002931
     99 C33         1.2100    1.0820    3.9980 c3        1 MOL     -0.495568
    100 C34         2.2700    4.2300    3.7820 c3        1 MOL     -0.156720
    101 H42        -2.4120    3.4610    3.2570 hn        1 MOL      0.261521
    102 H43        -1.3620    1.6630    4.0790 h1        1 MOL      0.046052
    103 H44         0.9400    2.1770    2.2080 hc        1 MOL      0.113387
    104 H45         0.5710    3.5910    5.0360 hc        1 MOL      0.017824
    105 H46         0.1540    4.4410    3.5400 hc        1 MOL      0.017824
    106 H47         0.6390    0.8120    4.8910 hc        1 MOL      0.124822
    107 H48         1.4930    0.2050    3.4180 hc        1 MOL      0.124822
    108 H49         2.2060    1.3670    4.3470 hc        1 MOL      0.124822
    109 H50         2.2710    4.5470    2.7480 hc        1 MOL      0.039008
    110 H51         2.5020    5.1000    4.3800 hc        1 MOL      0.039008
    111 H52         2.9550    3.4050    3.9820 hc        1 MOL      0.039008
    112 N10        -2.0830   -0.3690    2.7490 n         1 MOL     -0.197668
    113 C35        -2.2530   -1.7670    2.3030 c3        1 MOL     -0.214308
    114 C36        -3.6980   -2.2740    2.1540 c         1 MOL      0.604664
    115 O17        -3.9660   -3.4060    1.8300 o         1 MOL     -0.583435
    116 C37        -1.4420   -2.7410    3.2180 c3        1 MOL      0.332505
    117 C38        -1.6700   -2.5050    4.6900 c3        1 MOL     -0.170635
    118 O18        -0.0720   -2.6160    2.9590 oh        1 MOL     -0.585550
    119 H53        -2.6550   -0.0760    3.5300 hn        1 MOL      0.219477
    120 H54        -1.7790   -1.8380    1.3230 h1        1 MOL      0.088883
    121 H55        -1.7920   -3.7590    3.0380 h1        1 MOL      0.033616
    122 H56         0.2410   -2.7610    2.0590 ho        1 MOL      0.335080
    123 H57        -1.0770   -1.7560    5.2050 hc        1 MOL      0.037878
    124 H58        -2.7230   -2.3310    4.9220 hc        1 MOL      0.037878
    125 H59        -1.3970   -3.3870    5.2710 hc        1 MOL      0.037878
    126 N11        -4.6130   -1.3810    2.3770 n         1 MOL     -0.242336
    127 C39        -6.0400   -1.6610    2.1400 c3        1 MOL     -0.170516
    128 C40        -6.3130   -1.3400    0.6890 c         1 MOL      0.488852
    129 O19        -5.8750   -0.3200    0.1820 o         1 MOL     -0.491428
    130 C41        -6.8650   -0.8410    3.1400 c3        1 MOL      0.279647
    131 C42        -8.3670   -0.7640    2.9480 c3        1 MOL     -0.312300
    132 O20        -6.7710   -1.4960    4.4090 oh        1 MOL     -0.596145
    133 H60        -4.2940   -0.4570    2.6290 hn        1 MOL      0.175846
    134 H61        -6.2540   -2.7110    2.3200 h1        1 MOL      0.104452
    135 H62        -6.4580    0.1670    3.2000 h1        1 MOL      0.059555
    136 H63        -5.8460   -1.5330    4.6320 ho        1 MOL      0.370353
    137 H64        -8.9510   -0.2570    3.7250 hc        1 MOL      0.098596
    138 H65        -8.5180    0.0230    2.2050 hc        1 MOL      0.098596
    139 H66        -8.7400   -1.7450    2.6780 hc        1 MOL      0.098596
    140 N12        -7.0110   -2.2660    0.0650 n         1 MOL     -0.276220
    141 C43        -7.3270   -2.3520   -1.3550 c3        1 MOL      0.066417
    142 C44        -6.1520   -2.0780   -2.3120 c         1 MOL      0.395370
    143 O21        -6.3090   -1.5020   -3.4360 o         1 MOL     -0.493205
    144 C45        -8.4930   -1.4130   -1.7470 c3        1 MOL     -0.271235
    145 C46        -9.7710   -1.5690   -0.8720 c3        1 MOL     -0.355917
    146 C47       -10.4120   -2.9380   -1.2140 c3        1 MOL      0.137532
    147 C48       -11.6570   -3.2880   -0.4530 c3        1 MOL     -0.101415
    148 N13       -11.9730   -4.7490   -0.5020 n4        1 MOL     -0.133740
    149 H67        -7.4270   -3.0270    0.5880 hn        1 MOL      0.240033
    150 H68        -7.6070   -3.3980   -1.4930 h1        1 MOL      0.031558
    151 H69        -8.8130   -1.5480   -2.7810 hc        1 MOL      0.160144
    152 H70        -8.0730   -0.4150   -1.6630 hc        1 MOL      0.160144
    153 H71       -10.5640   -0.9160   -1.2480 hc        1 MOL      0.115577
    154 H72        -9.5240   -1.5090    0.1880 hc        1 MOL      0.115577
    155 H73        -9.7380   -3.7710   -1.0320 hc        1 MOL      0.025711
    156 H74       -10.5620   -2.9730   -2.2940 hc        1 MOL      0.025711
    157 H75       -12.5590   -2.8620   -0.8990 hx        1 MOL      0.098149
    158 H76       -11.5670   -3.0420    0.6040 hx        1 MOL      0.098149
    159 H77       -12.1050   -5.2050   -1.3940 hn        1 MOL      0.188565
    160 H78       -11.0750   -5.1190   -0.2380 hn        1 MOL      0.188565
    161 H79       -12.7740   -4.9730    0.0630 hn        1 MOL      0.188565
    162 N14        -4.9740   -2.5280   -1.8990 n         1 MOL     -0.406986
    163 C49        -3.6410   -2.1050   -2.4540 c3        1 MOL      0.252986
    164 C50        -2.5530   -2.2820   -1.3470 c         1 MOL      0.250536
    165 O22        -2.1270   -1.2610   -0.8070 o         1 MOL     -0.537855
    166 C51        -3.2360   -2.7570   -3.7720 c3        1 MOL     -0.203053
    167 C52        -1.9130   -2.3540   -4.4260 c3        1 MOL     -0.130626
    168 C53        -1.6700   -0.7960   -4.5430 c         1 MOL      0.647464
    169 O23        -1.3240   -0.1190   -3.5720 o         1 MOL     -0.603316
    170 O24        -1.8820   -0.2440   -5.6830 o         1 MOL     -0.603316
    171 H80        -4.9780   -3.0560   -1.0340 hn        1 MOL      0.231054
    172 H81        -3.6610   -1.0420   -2.6930 h1        1 MOL      0.107046
    173 H82        -3.9810   -2.4480   -4.4990 hc        1 MOL      0.064532
    174 H83        -3.3150   -3.8310   -3.5830 hc        1 MOL      0.064532
    175 H84        -1.8350   -2.8230   -5.4120 hc        1 MOL      0.040112
    176 H85        -1.2390   -2.8580   -3.7310 hc        1 MOL      0.040112
    177 N15        -1.9390   -3.4740   -0.9610 n         1 MOL     -0.120944
    178 C54        -2.2710   -4.8600   -1.3560 c3        1 MOL     -0.143737
    179 H86        -1.4510   -5.2790   -1.9370 h1        1 MOL      0.061512
    180 H87        -2.4280   -5.4660   -0.4630 h1        1 MOL      0.061512
    181 H88        -3.1790   -4.8590   -1.9580 h1        1 MOL      0.061512
    182 H89        -1.0310   -3.4570   -0.5200 hn        1 MOL      0.299570
    183 Ca1        -0.6430    0.8300   -1.2910 Ca        1 MOL      1.703292
    184 O25         1.4320    1.0190   -2.9310 oh        1 MOL     -0.883566
    185 H90         1.6550    1.8190   -3.4080 ho        1 MOL      0.422804
    186 H91         2.2130    0.8190   -2.4270 ho        1 MOL      0.422804
    187 O26        -2.8900    1.8590   -2.3100 oh        1 MOL     -0.883566
    188 H92        -2.6840    2.3430   -3.1030 ho        1 MOL      0.422804
    189 H93        -3.8260    2.0340   -2.1630 ho        1 MOL      0.422804
@<TRIPOS>BOND
     1    1    2 1   
     2    1    4 1   
     3    1    5 1   
     4    1    6 1   
     5    2    3 2   
     6    2    7 1   
     7    7    8 1   
     8    7   15 1   
     9    8    9 1   
    10    8   11 1   
    11    8   16 1   
    12    9   10 2   
    13    9   19 1   
    14   11   12 1   
    15   11   17 1   
    16   11   18 1   
    17   12   13 1   
    18   12   14 1   
    19   19   20 1   
    20   19   28 1   
    21   20   21 1   
    22   20   23 1   
    23   20   29 1   
    24   21   22 2   
    25   21   41 1   
    26   23   24 1   
    27   23   30 1   
    28   23   31 1   
    29   24   25 1   
    30   24   32 1   
    31   24   33 1   
    32   25   26 1   
    33   25   34 1   
    34   25   35 1   
    35   26   27 1   
    36   26   36 1   
    37   26   37 1   
    38   27   38 1   
    39   27   39 1   
    40   27   40 1   
    41   41   42 1   
    42   41   49 1   
    43   42   43 1   
    44   42   45 1   
    45   42   50 1   
    46   43   44 2   
    47   43   53 1   
    48   45   46 1   
    49   45   51 1   
    50   45   52 1   
    51   46   47 1   
    52   46   48 1   
    53   53   54 1   
    54   53   57 1   
    55   54   55 1   
    56   54   58 1   
    57   54   59 1   
    58   55   56 2   
    59   55   60 1   
    60   60   61 1   
    61   60   68 1   
    62   61   62 1   
    63   61   64 1   
    64   61   69 1   
    65   62   63 2   
    66   62   72 1   
    67   64   65 1   
    68   64   70 1   
    69   64   71 1   
    70   65   66 1   
    71   65   67 1   
    72   72   73 1   
    73   72   76 1   
    74   73   74 1   
    75   73   77 1   
    76   73   78 1   
    77   74   75 2   
    78   74   79 1   
    79   79   80 1   
    80   79   86 1   
    81   80   81 1   
    82   80   83 1   
    83   80   87 1   
    84   81   82 2   
    85   81   93 1   
    86   83   84 1   
    87   83   85 1   
    88   83   88 1   
    89   84   90 1   
    90   84   91 1   
    91   84   92 1   
    92   85   89 1   
    93   93   94 1   
    94   93  101 1   
    95   94   95 1   
    96   94   97 1   
    97   94  102 1   
    98   95   96 2   
    99   95  112 1   
   100   97   98 1   
   101   97   99 1   
   102   97  103 1   
   103   98  100 1   
   104   98  104 1   
   105   98  105 1   
   106   99  106 1   
   107   99  107 1   
   108   99  108 1   
   109  100  109 1   
   110  100  110 1   
   111  100  111 1   
   112  112  113 1   
   113  112  119 1   
   114  113  114 1   
   115  113  116 1   
   116  113  120 1   
   117  114  115 2   
   118  114  126 1   
   119  116  117 1   
   120  116  118 1   
   121  116  121 1   
   122  117  123 1   
   123  117  124 1   
   124  117  125 1   
   125  118  122 1   
   126  126  127 1   
   127  126  133 1   
   128  127  128 1   
   129  127  130 1   
   130  127  134 1   
   131  128  129 2   
   132  128  140 1   
   133  130  131 1   
   134  130  132 1   
   135  130  135 1   
   136  131  137 1   
   137  131  138 1   
   138  131  139 1   
   139  132  136 1   
   140  140  141 1   
   141  140  149 1   
   142  141  142 1   
   143  141  144 1   
   144  141  150 1   
   145  142  143 2   
   146  142  162 1   
   147  144  145 1   
   148  144  151 1   
   149  144  152 1   
   150  145  146 1   
   151  145  153 1   
   152  145  154 1   
   153  146  147 1   
   154  146  155 1   
   155  146  156 1   
   156  147  148 1   
   157  147  157 1   
   158  147  158 1   
   159  148  159 1   
   160  148  160 1   
   161  148  161 1   
   162  162  163 1   
   163  162  171 1   
   164  163  164 1   
   165  163  166 1   
   166  163  172 1   
   167  164  165 2   
   168  164  177 1   
   169  166  167 1   
   170  166  173 1   
   171  166  174 1   
   172  167  168 1   
   173  167  175 1   
   174  167  176 1   
   175  168  169 1   
   176  168  170 1   
   177  177  178 1   
   178  177  182 1   
   179  178  179 1   
   180  178  180 1   
   181  178  181 1   
   182  184  185 1   
   183  184  186 1   
   184  187  188 1   
   185  187  189 1   
@<TRIPOS>SUBSTRUCTURE
     1 MOL         1 TEMP              0 ****  ****    0 ROOT
