@<TRIPOS>MOLECULE
MOL
  195   189     1     0     0
SMALL
resp


@<TRIPOS>ATOM
      1 C1          3.8180   -3.4780   -3.7370 c3        1 MOL     -0.451602
      2 C2          3.0180   -3.0910   -2.4530 c         1 MOL      0.711132
      3 O1          2.1420   -2.2050   -2.5520 o         1 MOL     -0.542815
      4 H1          4.3140   -2.5930   -4.1360 hc        1 MOL      0.109541
      5 H2          4.5640   -4.2320   -3.4870 hc        1 MOL      0.109541
      6 H3          3.1330   -3.8780   -4.4850 hc        1 MOL      0.109541
      7 N1          3.2960   -3.7180   -1.2740 n         1 MOL     -0.499233
      8 C3          2.6780   -3.4200    0.0340 c3        1 MOL     -0.085446
      9 C4          1.1360   -3.4980    0.0280 c         1 MOL      0.836142
     10 O2          0.4260   -2.5930    0.5880 o         1 MOL     -0.639206
     11 C5          3.3770   -2.1050    0.5130 c3        1 MOL     -0.369616
     12 C6          4.9210   -2.2950    0.7740 c         1 MOL      0.650531
     13 O3          5.7530   -1.5300    0.2300 o         1 MOL     -0.655908
     14 O4          5.3590   -3.1160    1.5680 o         1 MOL     -0.655908
     15 H4          3.9580   -4.4830   -1.2280 hn        1 MOL      0.241551
     16 H5          2.9980   -4.1590    0.7680 h1        1 MOL      0.075279
     17 H6          2.8770   -1.6810    1.3880 hc        1 MOL      0.163145
     18 H7          3.1540   -1.3520   -0.2410 hc        1 MOL      0.163145
     19 N2          0.5080   -4.4500   -0.6610 n         1 MOL     -0.670248
     20 C7         -0.9590   -4.5950   -0.7280 c3        1 MOL     -0.166078
     21 C8         -1.4440   -5.2450    0.5980 c         1 MOL      0.478550
     22 O5         -0.7240   -5.9850    1.2680 o         1 MOL     -0.542779
     23 C9         -1.3620   -5.3540   -2.0100 c3        1 MOL      0.279090
     24 C10        -1.0890   -6.8930   -1.9410 c3        1 MOL     -0.087899
     25 C11        -0.6100   -4.7930   -3.1640 c3        1 MOL      0.127480
     26 C12        -2.0240   -7.7120   -2.9020 c3        1 MOL     -0.126454
     27 H8          1.1050   -5.0850   -1.1770 hn        1 MOL      0.338073
     28 H9         -1.3240   -3.5650   -0.7950 h1        1 MOL      0.176820
     29 H10        -2.4330   -5.2330   -2.1780 hc        1 MOL      0.010751
     30 H11        -1.3440   -7.3140   -0.9700 hc        1 MOL      0.018882
     31 H12        -0.0610   -7.1810   -2.1730 hc        1 MOL      0.018882
     32 H13        -0.9290   -3.8260   -3.5460 hc        1 MOL     -0.044762
     33 H14         0.4610   -4.9820   -3.0990 hc        1 MOL     -0.044762
     34 H15        -0.8660   -5.3840   -4.0470 hc        1 MOL     -0.044762
     35 H16        -1.6980   -8.7460   -2.7610 hc        1 MOL      0.022940
     36 H17        -3.0800   -7.7290   -2.6350 hc        1 MOL      0.022940
     37 H18        -1.8990   -7.3890   -3.9270 hc        1 MOL      0.022940
     38 N3         -2.7770   -5.3300    0.7930 n         1 MOL     -0.474718
     39 C13        -3.7270   -4.2690    0.3300 c3        1 MOL     -0.011050
     40 C14        -3.6260   -2.9350    1.0730 c         1 MOL      0.398940
     41 O6         -3.9560   -1.8560    0.5370 o         1 MOL     -0.526055
     42 C15        -5.1400   -4.8520    0.4880 c3        1 MOL      0.044136
     43 C16        -5.3660   -6.1680   -0.3010 c         1 MOL      0.693615
     44 O7         -5.2290   -6.1440   -1.5450 o         1 MOL     -0.703539
     45 O8         -5.8560   -7.1290    0.3250 o         1 MOL     -0.703539
     46 H19        -3.0680   -6.0970    1.3880 hn        1 MOL      0.321823
     47 H20        -3.5720   -4.1090   -0.7410 h1        1 MOL      0.036153
     48 H21        -5.9240   -4.1880    0.1400 hc        1 MOL     -0.028114
     49 H22        -5.3220   -4.9830    1.5580 hc        1 MOL     -0.028114
     50 N4         -3.0660   -2.9220    2.2850 n         1 MOL     -0.111847
     51 C17        -3.1020   -1.8440    3.2040 c3        1 MOL     -0.411509
     52 C18        -4.5740   -1.6420    3.6660 c         1 MOL      0.639768
     53 O9         -5.2760   -2.6110    3.8460 o         1 MOL     -0.583964
     54 H23        -2.8820   -3.8420    2.6530 hn        1 MOL      0.244261
     55 H24        -2.8680   -0.9020    2.7180 h1        1 MOL      0.169907
     56 H25        -2.4750   -2.0670    4.0570 h1        1 MOL      0.169907
     57 N5         -5.0270   -0.4090    3.8740 n         1 MOL     -0.518655
     58 C19        -6.4580   -0.0100    4.1720 c3        1 MOL      0.071027
     59 C20        -7.4060   -0.1780    2.9390 c         1 MOL      0.448364
     60 O10        -8.4560    0.4610    2.8790 o         1 MOL     -0.549242
     61 C21        -6.4270    1.4340    4.6220 c3        1 MOL     -0.296940
     62 C22        -5.8380    2.4980    3.6800 c         1 MOL      0.751019
     63 O11        -5.4290    2.1680    2.5310 o         1 MOL     -0.690048
     64 O12        -5.8060    3.6820    4.1320 o         1 MOL     -0.690048
     65 H26        -4.4490    0.4040    3.6890 hn        1 MOL      0.296469
     66 H27        -6.8640   -0.7160    4.9020 h1        1 MOL      0.085928
     67 H28        -5.7760    1.4810    5.4900 hc        1 MOL      0.056230
     68 H29        -7.3910    1.7990    4.9870 hc        1 MOL      0.056230
     69 N6         -7.0470   -0.9990    1.9130 n         1 MOL     -0.343344
     70 C23        -7.7420   -1.1440    0.6830 c3        1 MOL     -0.024984
     71 C24        -7.7920    0.1230   -0.2480 c         1 MOL      0.514130
     72 O13        -7.9590   -0.1160   -1.4470 o         1 MOL     -0.567904
     73 H30        -6.2060   -1.5410    1.9690 hn        1 MOL      0.255635
     74 H31        -8.7790   -1.3130    0.9870 h1        1 MOL      0.074058
     75 H32        -7.3760   -2.0460    0.1970 h1        1 MOL      0.074058
     76 N7         -7.5650    1.3610    0.2500 n         1 MOL     -0.427809
     77 C25        -7.5380    2.7080   -0.4510 c3        1 MOL      0.075202
     78 C26        -7.0270    2.7350   -1.8820 c         1 MOL      0.508553
     79 O14        -7.5460    3.4160   -2.7700 o         1 MOL     -0.534154
     80 C27        -8.9570    3.3000   -0.4340 c3        1 MOL      0.045390
     81 C28        -9.6650    3.4340    0.9410 c3        1 MOL     -0.273962
     82 C29        -8.9660    4.3670    2.0050 c         1 MOL      0.548415
     83 N8         -8.9720    4.2030    3.2830 n         1 MOL     -0.674610
     84 O15        -8.2440    5.1920    1.6740 o         1 MOL     -0.480640
     85 H33        -7.5500    1.4650    1.2540 hn        1 MOL      0.388776
     86 H34        -6.9160    3.3840    0.1460 h1        1 MOL      0.083691
     87 H35        -9.5340    2.6230   -1.0560 hc        1 MOL      0.022368
     88 H36        -8.9060    4.2400   -0.9750 hc        1 MOL      0.022368
     89 H37        -9.7600    2.4280    1.3530 hc        1 MOL      0.049732
     90 H38       -10.6780    3.7670    0.7440 hc        1 MOL      0.049732
     91 H39        -9.6840    3.5900    3.6600 hn        1 MOL      0.317791
     92 H40        -8.4690    4.8030    3.9110 hn        1 MOL      0.317791
     93 N9         -5.8940    2.0030   -2.1600 n         1 MOL     -0.360215
     94 C30        -5.0660    1.9200   -3.3500 c3        1 MOL     -0.029581
     95 C31        -3.6130    2.1200   -3.0260 c         1 MOL      0.542613
     96 O16        -2.9960    3.0740   -3.5850 o         1 MOL     -0.538902
     97 C32        -5.3140    0.6160   -4.1630 c3        1 MOL      0.504302
     98 C33        -6.7110    0.3920   -4.6160 c3        1 MOL     -0.298919
     99 C34        -4.5150    0.5460   -5.4190 c3        1 MOL     -0.298919
    100 H41        -5.5030    1.5600   -1.3490 hn        1 MOL      0.174543
    101 H42        -5.3580    2.7270   -4.0230 h1        1 MOL      0.060824
    102 H43        -5.0650   -0.2690   -3.5760 hc        1 MOL     -0.092242
    103 H44        -7.0280    1.1080   -5.3650 hc        1 MOL      0.045428
    104 H45        -6.7740   -0.5710   -5.1210 hc        1 MOL      0.045428
    105 H46        -7.4010    0.3910   -3.7750 hc        1 MOL      0.045428
    106 H47        -4.7310   -0.3390   -6.0130 hc        1 MOL      0.045428
    107 H48        -4.5690    1.4740   -5.9810 hc        1 MOL      0.045428
    108 H49        -3.4740    0.4710   -5.0850 hc        1 MOL      0.045428
    109 N10        -2.9800    1.2320   -2.2240 n         1 MOL     -0.385414
    110 C35        -1.5060    0.9950   -2.1010 c3        1 MOL     -0.111961
    111 C36        -0.7980    1.8170   -1.0130 c         1 MOL      0.676825
    112 O17        -1.5050    2.3840   -0.1710 o         1 MOL     -0.516278
    113 C37        -1.3350   -0.4970   -1.7350 c3        1 MOL     -0.201138
    114 C38        -2.0930   -1.4400   -2.6850 c         1 MOL      0.635674
    115 N11        -3.1410   -2.0040   -2.1340 n         1 MOL     -0.719920
    116 O18        -1.8020   -1.7010   -3.8510 o         1 MOL     -0.586761
    117 H50        -3.4680    0.6410   -1.5690 hn        1 MOL      0.280605
    118 H51        -1.1450    1.1850   -3.1140 h1        1 MOL      0.108413
    119 H52        -1.6320   -0.5520   -0.6890 hc        1 MOL      0.102680
    120 H53        -0.2730   -0.7080   -1.8060 hc        1 MOL      0.102680
    121 H54        -3.2720   -1.7830   -1.1470 hn        1 MOL      0.360920
    122 H55        -3.7720   -2.5290   -2.7270 hn        1 MOL      0.360920
    123 N12         0.5350    1.8420   -1.0570 n         1 MOL     -0.617020
    124 C39         1.3940    2.4140    0.0310 c3        1 MOL      0.239311
    125 C40         2.5880    3.0940   -0.5630 c         1 MOL      0.371080
    126 O19         3.2150    2.5430   -1.5250 o         1 MOL     -0.590954
    127 C41         1.8930    1.2080    0.8970 c3        1 MOL     -0.118132
    128 C42         2.9030    1.6870    2.0090 ca        1 MOL     -0.139637
    129 C43         4.2790    1.2700    2.0400 ca        1 MOL     -0.041375
    130 C44         2.4480    2.5300    2.9900 ca        1 MOL     -0.041375
    131 C45         5.1700    1.8010    3.0690 ca        1 MOL     -0.327377
    132 C46         3.2710    3.0180    4.0400 ca        1 MOL     -0.327377
    133 C47         4.6080    2.7360    4.0030 ca        1 MOL      0.398265
    134 O20         5.3860    3.3550    4.9140 oh        1 MOL     -0.556665
    135 H56         1.0310    1.5510   -1.8990 hn        1 MOL      0.337615
    136 H57         0.8480    3.1330    0.6530 h1        1 MOL      0.012264
    137 H58         2.4160    0.5440    0.2160 hc        1 MOL      0.081101
    138 H59         1.1310    0.6140    1.3870 hc        1 MOL      0.081101
    139 H60         4.7220    0.5810    1.3240 ha        1 MOL      0.123946
    140 H61         1.3950    2.7640    3.0170 ha        1 MOL      0.123946
    141 H62         6.1760    1.4360    3.1230 ha        1 MOL      0.165981
    142 H63         2.9280    3.6430    4.8490 ha        1 MOL      0.165981
    143 H64         6.3270    3.2140    4.8120 ho        1 MOL      0.393922
    144 N13         3.0790    4.2030   -0.0010 n         1 MOL     -0.106661
    145 C48         4.2180    4.8970   -0.6050 c3        1 MOL     -0.071671
    146 C49         5.5000    4.7120    0.2540 c         1 MOL      0.518552
    147 O21         5.6030    5.3490    1.2720 o         1 MOL     -0.577961
    148 C50         3.9100    6.3810   -0.8050 c3        1 MOL      0.052613
    149 C51         2.7870    6.6750   -1.7460 c3        1 MOL     -0.039538
    150 C52         2.5610    8.2190   -1.9120 c         1 MOL      0.607128
    151 O22         1.6790    8.6970   -1.1870 o         1 MOL     -0.636965
    152 O23         3.4180    8.8900   -2.4780 o         1 MOL     -0.636965
    153 H65         2.7570    4.5560    0.8840 hn        1 MOL      0.232058
    154 H66         4.5360    4.5170   -1.5770 h1        1 MOL      0.183394
    155 H67         4.7730    6.9120   -1.2020 hc        1 MOL      0.008438
    156 H68         3.6440    6.7940    0.1710 hc        1 MOL      0.008438
    157 H69         1.9060    6.2310   -1.2790 hc        1 MOL     -0.044027
    158 H70         2.9320    6.1870   -2.7050 hc        1 MOL     -0.044027
    159 N14         6.4140    3.8230   -0.0380 n         1 MOL     -0.454895
    160 C53         6.4050    2.6310   -0.9290 c3        1 MOL     -0.021026
    161 C54         6.2970    2.9460   -2.3810 c         1 MOL      0.328210
    162 O24         6.7760    3.9280   -2.7880 o         1 MOL     -0.492767
    163 C55         7.7490    1.8960   -0.7810 c3        1 MOL      0.019290
    164 C56         7.9150    1.3700    0.6910 c3        1 MOL     -0.368499
    165 C57         9.2100    0.4540    0.6860 c         1 MOL      0.716746
    166 O25        10.3670    0.9410    0.9350 o         1 MOL     -0.695207
    167 O26         9.1670   -0.7490    0.3590 o         1 MOL     -0.695207
    168 H71         7.2350    3.9230    0.5410 hn        1 MOL      0.323849
    169 H72         5.5790    1.9900   -0.6140 h1        1 MOL      0.078732
    170 H73         8.6090    2.5450   -0.9210 hc        1 MOL      0.039272
    171 H74         7.5870    1.0790   -1.4870 hc        1 MOL      0.039272
    172 H75         7.0800    0.7290    0.9640 hc        1 MOL      0.069962
    173 H76         7.8170    2.0940    1.4930 hc        1 MOL      0.069962
    174 N15         5.7400    2.0100   -3.1500 n         1 MOL     -0.076029
    175 C58         5.5860    2.0670   -4.5910 c3        1 MOL     -0.373626
    176 H77         6.4570    2.5510   -5.0300 h1        1 MOL      0.132620
    177 H78         5.4940    1.0560   -4.9870 h1        1 MOL      0.132620
    178 H79         4.6900    2.6370   -4.8390 h1        1 MOL      0.132620
    179 H80         5.4500    1.1850   -2.6360 hn        1 MOL      0.209937
    180 Ca1         7.8700   -2.8750    1.0470 Ca        1 MOL      1.626510
    181 O27         7.5970   -4.6070    3.0860 oh        1 MOL     -0.816250
    182 H81         8.2990   -5.2420    3.2560 ho        1 MOL      0.387208
    183 H82         6.8340   -4.9750    3.5220 ho        1 MOL      0.387208
    184 O28         9.9610   -2.6210    2.7840 oh        1 MOL     -0.816250
    185 H83         9.9840   -2.9040    3.6980 ho        1 MOL      0.387208
    186 H84        10.6810   -2.0010    2.7020 ho        1 MOL      0.387208
    187 O29         9.8400   -4.5670    0.4480 oh        1 MOL     -0.816250
    188 H85        10.5570   -4.9930    0.9230 ho        1 MOL      0.387208
    189 H86         9.7870   -5.0470   -0.3820 ho        1 MOL      0.387208
    190 O30         8.1840   -2.8960   -1.5300 oh        1 MOL     -0.816250
    191 H87         9.0050   -3.0510   -1.9970 ho        1 MOL      0.387208
    192 H88         7.5130   -2.9910   -2.2060 ho        1 MOL      0.387208
    193 O31         7.5550   -1.2950    3.3150 oh        1 MOL     -0.816250
    194 H89         7.0130   -0.9190    4.0090 ho        1 MOL      0.387208
    195 H90         8.4580   -1.1550    3.6040 ho        1 MOL      0.387208
@<TRIPOS>BOND
     1    1    2 1   
     2    1    4 1   
     3    1    5 1   
     4    1    6 1   
     5    2    3 2   
     6    2    7 1   
     7    7    8 1   
     8    7   15 1   
     9    8    9 1   
    10    8   11 1   
    11    8   16 1   
    12    9   10 2   
    13    9   19 1   
    14   11   12 1   
    15   11   17 1   
    16   11   18 1   
    17   12   13 1   
    18   12   14 1   
    19   19   20 1   
    20   19   27 1   
    21   20   21 1   
    22   20   23 1   
    23   20   28 1   
    24   21   22 2   
    25   21   38 1   
    26   23   24 1   
    27   23   25 1   
    28   23   29 1   
    29   24   26 1   
    30   24   30 1   
    31   24   31 1   
    32   25   32 1   
    33   25   33 1   
    34   25   34 1   
    35   26   35 1   
    36   26   36 1   
    37   26   37 1   
    38   38   39 1   
    39   38   46 1   
    40   39   40 1   
    41   39   42 1   
    42   39   47 1   
    43   40   41 2   
    44   40   50 1   
    45   42   43 1   
    46   42   48 1   
    47   42   49 1   
    48   43   44 1   
    49   43   45 1   
    50   50   51 1   
    51   50   54 1   
    52   51   52 1   
    53   51   55 1   
    54   51   56 1   
    55   52   53 2   
    56   52   57 1   
    57   57   58 1   
    58   57   65 1   
    59   58   59 1   
    60   58   61 1   
    61   58   66 1   
    62   59   60 2   
    63   59   69 1   
    64   61   62 1   
    65   61   67 1   
    66   61   68 1   
    67   62   63 1   
    68   62   64 1   
    69   69   70 1   
    70   69   73 1   
    71   70   71 1   
    72   70   74 1   
    73   70   75 1   
    74   71   72 2   
    75   71   76 1   
    76   76   77 1   
    77   76   85 1   
    78   77   78 1   
    79   77   80 1   
    80   77   86 1   
    81   78   79 2   
    82   78   93 1   
    83   80   81 1   
    84   80   87 1   
    85   80   88 1   
    86   81   82 1   
    87   81   89 1   
    88   81   90 1   
    89   82   83 1   
    90   82   84 2   
    91   83   91 1   
    92   83   92 1   
    93   93   94 1   
    94   93  100 1   
    95   94   95 1   
    96   94   97 1   
    97   94  101 1   
    98   95   96 2   
    99   95  109 1   
   100   97   98 1   
   101   97   99 1   
   102   97  102 1   
   103   98  103 1   
   104   98  104 1   
   105   98  105 1   
   106   99  106 1   
   107   99  107 1   
   108   99  108 1   
   109  109  110 1   
   110  109  117 1   
   111  110  111 1   
   112  110  113 1   
   113  110  118 1   
   114  111  112 2   
   115  111  123 1   
   116  113  114 1   
   117  113  119 1   
   118  113  120 1   
   119  114  115 1   
   120  114  116 2   
   121  115  121 1   
   122  115  122 1   
   123  123  124 1   
   124  123  135 1   
   125  124  125 1   
   126  124  127 1   
   127  124  136 1   
   128  125  126 2   
   129  125  144 1   
   130  127  128 1   
   131  127  137 1   
   132  127  138 1   
   133  128  129 ar  
   134  128  130 ar  
   135  129  131 ar  
   136  129  139 1   
   137  130  132 ar  
   138  130  140 1   
   139  131  133 ar  
   140  131  141 1   
   141  132  133 ar  
   142  132  142 1   
   143  133  134 1   
   144  134  143 1   
   145  144  145 1   
   146  144  153 1   
   147  145  146 1   
   148  145  148 1   
   149  145  154 1   
   150  146  147 2   
   151  146  159 1   
   152  148  149 1   
   153  148  155 1   
   154  148  156 1   
   155  149  150 1   
   156  149  157 1   
   157  149  158 1   
   158  150  151 1   
   159  150  152 1   
   160  159  160 1   
   161  159  168 1   
   162  160  161 1   
   163  160  163 1   
   164  160  169 1   
   165  161  162 2   
   166  161  174 1   
   167  163  164 1   
   168  163  170 1   
   169  163  171 1   
   170  164  165 1   
   171  164  172 1   
   172  164  173 1   
   173  165  166 1   
   174  165  167 1   
   175  174  175 1   
   176  174  179 1   
   177  175  176 1   
   178  175  177 1   
   179  175  178 1   
   180  181  182 1   
   181  181  183 1   
   182  184  185 1   
   183  184  186 1   
   184  187  188 1   
   185  187  189 1   
   186  190  191 1   
   187  190  192 1   
   188  193  194 1   
   189  193  195 1   
@<TRIPOS>SUBSTRUCTURE
     1 MOL         1 TEMP              0 ****  ****    0 ROOT
