@<TRIPOS>MOLECULE
MOL
  192   187     1     0     0
SMALL
resp


@<TRIPOS>ATOM
      1 C1          9.0290    0.9920    1.7680 c3        1 MOL     -0.614387
      2 C2          8.1510    0.5220    0.5800 c         1 MOL      0.723308
      3 O1          6.9390    0.5730    0.5720 o         1 MOL     -0.668407
      4 H1          9.0350    0.2240    2.5420 hc        1 MOL      0.154077
      5 H2         10.0490    1.1650    1.4210 hc        1 MOL      0.154077
      6 H3          8.6230    1.9170    2.1780 hc        1 MOL      0.154077
      7 N1          8.8320   -0.1240   -0.3960 n         1 MOL     -0.359037
      8 C3          8.3330   -0.8810   -1.5890 c3        1 MOL     -0.123761
      9 C4          7.8570   -2.3060   -1.1290 c         1 MOL      0.401084
     10 O2          8.4770   -3.3290   -1.4510 o         1 MOL     -0.439861
     11 C5          9.3880   -1.0160   -2.6940 c3        1 MOL     -0.076253
     12 C6         10.7520   -1.5650   -2.2470 c         1 MOL      0.708350
     13 O3         10.9500   -1.9600   -1.0370 o         1 MOL     -0.669232
     14 O4         11.5360   -1.6580   -3.1880 o         1 MOL     -0.669232
     15 H4          9.8260   -0.0360   -0.2310 hn        1 MOL      0.201582
     16 H5          7.4510   -0.3940   -2.0010 h1        1 MOL      0.110366
     17 H6          9.5900   -0.1310   -3.3020 hc        1 MOL      0.046226
     18 H7          9.0410   -1.7660   -3.4130 hc        1 MOL      0.046226
     19 N2          6.7070   -2.3080   -0.3760 n         1 MOL     -0.276950
     20 C7          5.9860   -3.4860    0.1780 c3        1 MOL      0.131244
     21 C8          4.5350   -3.5960   -0.2340 c         1 MOL      0.416222
     22 O5          4.1340   -4.6180   -0.8460 o         1 MOL     -0.517100
     23 C9          6.2500   -3.5190    1.7100 c3        1 MOL      0.126448
     24 C10         7.7330   -3.4970    2.2110 c3        1 MOL     -0.064329
     25 C11         7.7810   -3.7640    3.7560 c3        1 MOL      0.010118
     26 C12         9.1950   -3.6010    4.2120 c3        1 MOL      0.079320
     27 N3          9.3010   -3.3400    5.7240 n4        1 MOL     -0.402511
     28 H8          6.2730   -1.3960   -0.3070 hn        1 MOL      0.240965
     29 H9          6.4730   -4.4360   -0.0730 h1        1 MOL      0.042268
     30 H10         5.8360   -4.4430    2.1130 hc        1 MOL     -0.039716
     31 H11         5.7150   -2.7540    2.2840 hc        1 MOL     -0.039716
     32 H12         8.0070   -2.4900    1.9080 hc        1 MOL      0.040733
     33 H13         8.3490   -4.2170    1.6730 hc        1 MOL      0.040733
     34 H14         7.3560   -4.7300    4.0000 hc        1 MOL      0.013715
     35 H15         7.1740   -2.9850    4.2150 hc        1 MOL      0.013715
     36 H16         9.6370   -2.7640    3.6770 hx        1 MOL      0.083265
     37 H17         9.7500   -4.4870    3.9090 hx        1 MOL      0.083265
     38 H18         8.8150   -4.1190    6.1450 hn        1 MOL      0.315350
     39 H19        10.2500   -3.1960    6.0320 hn        1 MOL      0.315350
     40 H20         8.7600   -2.5180    5.9630 hn        1 MOL      0.315350
     41 N4          3.6140   -2.5960   -0.0620 n         1 MOL     -0.410318
     42 C13         3.7280   -1.3700    0.7500 c3        1 MOL     -0.046125
     43 C14         3.9120   -0.1480   -0.1430 c         1 MOL      0.337554
     44 O6          3.9040   -0.1350   -1.3710 o         1 MOL     -0.487794
     45 C15         2.5150   -1.1200    1.6350 c3        1 MOL      0.012431
     46 C16         1.2050   -1.3850    0.9840 c         1 MOL      0.672393
     47 O7          1.0470   -0.8970   -0.1380 o         1 MOL     -0.675303
     48 O8          0.3980   -2.2060    1.4010 o         1 MOL     -0.675303
     49 H21         2.7610   -2.9390   -0.4680 hn        1 MOL      0.360096
     50 H22         4.5970   -1.3270    1.4080 h1        1 MOL      0.074456
     51 H23         2.6020   -0.0990    2.0240 hc        1 MOL     -0.013533
     52 H24         2.5740   -1.7990    2.4770 hc        1 MOL     -0.013533
     53 N5          4.1040    1.0390    0.5150 n         1 MOL      0.004922
     54 C17         4.1670    2.3380   -0.1150 c3        1 MOL     -0.372980
     55 C18         2.8610    2.7820   -0.7640 c         1 MOL      0.662567
     56 O9          1.8320    2.1110   -0.6900 o         1 MOL     -0.569056
     57 H25         4.3090    1.0570    1.5070 hn        1 MOL      0.197037
     58 H26         4.9600    2.3350   -0.8620 h1        1 MOL      0.144644
     59 H27         4.4040    3.0020    0.7090 h1        1 MOL      0.144644
     60 N6          2.8630    3.9120   -1.4570 n         1 MOL     -0.644682
     61 C19         1.7550    4.4700   -2.2440 c3        1 MOL      0.321560
     62 C20         2.0480    5.8920   -2.6010 c         1 MOL      0.416163
     63 O10         3.2210    6.3060   -2.6940 o         1 MOL     -0.523479
     64 C21         1.7070    3.6350   -3.5060 c3        1 MOL     -0.048140
     65 C22         0.2970    3.3290   -3.8790 c         1 MOL      0.712500
     66 O11        -0.3760    2.6220   -3.1370 o         1 MOL     -0.728036
     67 O12        -0.1830    3.7210   -4.9700 o         1 MOL     -0.728036
     68 H28         3.7540    4.3420   -1.6540 hn        1 MOL      0.306681
     69 H29         0.8250    4.3690   -1.7030 h1        1 MOL      0.073901
     70 H30         2.1430    2.6350   -3.4780 hc        1 MOL      0.008874
     71 H31         2.2640    4.0560   -4.3310 hc        1 MOL      0.008874
     72 N7          1.0460    6.7390   -2.9360 n         1 MOL     -0.456165
     73 C23        -0.4020    6.5620   -2.9540 c3        1 MOL     -0.127916
     74 C24        -0.9980    6.3730   -1.4880 c         1 MOL      0.532956
     75 O13        -0.3180    6.6670   -0.4520 o         1 MOL     -0.511665
     76 H32         1.2740    7.7170   -3.0640 hn        1 MOL      0.331897
     77 H33        -0.7540    5.7830   -3.6260 h1        1 MOL      0.106141
     78 H34        -0.8060    7.5140   -3.3110 h1        1 MOL      0.106141
     79 N8         -2.1680    5.6740   -1.4010 n         1 MOL     -0.612691
     80 C25        -2.6790    5.0180   -0.1540 c3        1 MOL      0.105257
     81 C26        -1.7660    3.9180    0.3920 c         1 MOL      0.621442
     82 O14        -1.1750    3.1620   -0.3630 o         1 MOL     -0.527985
     83 C27        -4.0960    4.4690   -0.4540 c3        1 MOL      0.247804
     84 C28        -4.7030    3.8330    0.8340 c3        1 MOL     -0.287802
     85 O15        -4.1460    3.4740   -1.4530 oh        1 MOL     -0.648301
     86 H35        -2.7090    5.4330   -2.2170 hn        1 MOL      0.361042
     87 H36        -2.6950    5.8030    0.6010 h1        1 MOL      0.058204
     88 H37        -4.6800    5.3650   -0.6940 h1        1 MOL      0.035377
     89 H38        -5.0720    3.3240   -1.6470 ho        1 MOL      0.432351
     90 H39        -4.2390    2.9110    1.1800 hc        1 MOL      0.067745
     91 H40        -4.5590    4.5300    1.6560 hc        1 MOL      0.067745
     92 H41        -5.7750    3.6730    0.7370 hc        1 MOL      0.067745
     93 N9         -1.7160    3.8590    1.7240 n         1 MOL     -0.485003
     94 C29        -0.9720    2.8980    2.6260 c3        1 MOL     -0.021923
     95 C30        -1.3750    1.4380    2.2340 c         1 MOL      0.366558
     96 O16        -0.8660    0.9490    1.1550 o         1 MOL     -0.579199
     97 C31         0.5390    3.2550    2.5210 c3        1 MOL      0.023188
     98 C32         0.8500    4.6610    3.0210 c3        1 MOL      0.122779
     99 C33         1.3340    2.2500    3.3280 c3        1 MOL     -0.270426
    100 C34         0.5330    5.0190    4.5130 c3        1 MOL     -0.267250
    101 H42        -2.2000    4.5320    2.2950 hn        1 MOL      0.277004
    102 H43        -1.2570    3.1090    3.6590 h1        1 MOL      0.084216
    103 H44         0.8700    3.2480    1.4830 hc        1 MOL      0.049867
    104 H45         0.3350    5.3820    2.3810 hc        1 MOL      0.012618
    105 H46         1.8930    4.9350    2.8630 hc        1 MOL      0.012618
    106 H47         1.2340    1.2000    3.0710 hc        1 MOL      0.066299
    107 H48         2.3910    2.5120    3.3270 hc        1 MOL      0.066299
    108 H49         1.0230    2.3770    4.3650 hc        1 MOL      0.066299
    109 H50         0.8840    6.0470    4.6050 hc        1 MOL      0.057862
    110 H51        -0.5230    5.0420    4.7560 hc        1 MOL      0.057862
    111 H52         0.9980    4.2930    5.1830 hc        1 MOL      0.057862
    112 N10        -2.2720    0.8820    3.0320 n         1 MOL     -0.153004
    113 C35        -2.6560   -0.5490    2.9780 c3        1 MOL      0.164801
    114 C36        -4.1490   -0.7480    3.0490 c         1 MOL      0.267403
    115 O17        -4.6130   -1.8810    3.3220 o         1 MOL     -0.525552
    116 C37        -1.9410   -1.3250    4.1280 c3        1 MOL      0.471913
    117 C38        -2.0570   -0.7330    5.4950 c3        1 MOL     -0.245767
    118 O18        -0.5670   -1.5100    3.7660 oh        1 MOL     -0.673180
    119 H53        -2.5650    1.4170    3.8310 hn        1 MOL      0.195268
    120 H54        -2.3320   -1.0520    2.0610 h1        1 MOL      0.029707
    121 H55        -2.3770   -2.3220    4.0770 h1        1 MOL     -0.027697
    122 H56        -0.4570   -1.8000    2.8530 ho        1 MOL      0.379567
    123 H57        -1.4330   -1.3760    6.1010 hc        1 MOL      0.045318
    124 H58        -1.6470    0.2770    5.5230 hc        1 MOL      0.045318
    125 H59        -3.1060   -0.7100    5.7940 hc        1 MOL      0.045318
    126 N11        -4.9060    0.2810    2.7450 n         1 MOL     -0.067366
    127 C39        -6.4220    0.2890    2.7040 c3        1 MOL     -0.152074
    128 C40        -6.8350   -0.4970    1.4850 c         1 MOL      0.570647
    129 O19        -7.0830    0.0750    0.4030 o         1 MOL     -0.521200
    130 C41        -7.0250    1.6840    2.7280 c3        1 MOL      0.607849
    131 C42        -8.4640    1.7560    3.1840 c3        1 MOL     -0.386027
    132 O20        -6.1940    2.6320    3.3640 oh        1 MOL     -0.657769
    133 H60        -4.4900    1.1700    2.5320 hn        1 MOL      0.059019
    134 H61        -6.7650   -0.2340    3.5960 h1        1 MOL      0.089770
    135 H62        -6.9490    2.0190    1.6860 h1        1 MOL     -0.094408
    136 H63        -6.6030    3.4900    3.2260 ho        1 MOL      0.390126
    137 H64        -8.6430    2.8310    3.1500 hc        1 MOL      0.090114
    138 H65        -9.1980    1.4930    2.4160 hc        1 MOL      0.090114
    139 H66        -8.5570    1.3410    4.1870 hc        1 MOL      0.090114
    140 N12        -6.8180   -1.8570    1.4860 n         1 MOL     -0.619812
    141 C43        -6.4880   -2.6820    0.3240 c3        1 MOL      0.358638
    142 C44        -5.1060   -2.4190   -0.3510 c         1 MOL      0.575616
    143 O21        -4.4140   -1.4690    0.0300 o         1 MOL     -0.526648
    144 C45        -7.5910   -2.8010   -0.6760 c3        1 MOL     -0.634998
    145 C46        -9.0160   -3.1760   -0.1000 c3        1 MOL      0.205066
    146 C47        -9.9350   -3.0900   -1.3290 c3        1 MOL      0.118901
    147 C48       -11.4000   -3.0270   -0.9720 c3        1 MOL     -0.177514
    148 N13       -11.9690   -4.3170   -0.4990 n4        1 MOL     -0.043745
    149 H67        -6.7110   -2.2630    2.3990 hn        1 MOL      0.306427
    150 H68        -6.3030   -3.6820    0.7130 h1        1 MOL      0.030303
    151 H69        -7.3560   -3.5870   -1.3860 hc        1 MOL      0.191824
    152 H70        -7.7580   -1.8140   -1.0990 hc        1 MOL      0.191824
    153 H71        -9.3440   -2.4530    0.6480 hc        1 MOL     -0.029412
    154 H72        -9.0850   -4.2160    0.2120 hc        1 MOL     -0.029412
    155 H73        -9.7300   -3.8780   -2.0450 hc        1 MOL      0.015556
    156 H74        -9.7330   -2.1500   -1.8300 hc        1 MOL      0.015556
    157 H75       -12.0550   -2.8610   -1.8380 hx        1 MOL      0.113268
    158 H76       -11.5560   -2.2450   -0.2420 hx        1 MOL      0.113268
    159 H77       -11.7720   -5.1260   -1.0760 hn        1 MOL      0.186864
    160 H78       -11.6230   -4.4470    0.4390 hn        1 MOL      0.186864
    161 H79       -12.9690   -4.2060   -0.3690 hn        1 MOL      0.186864
    162 N14        -4.6330   -3.3480   -1.1820 n         1 MOL     -0.605626
    163 C49        -3.4030   -3.1840   -1.9920 c3        1 MOL      0.106975
    164 C50        -2.1370   -2.7820   -1.2440 c         1 MOL      0.219063
    165 O22        -1.3780   -1.9020   -1.7240 o         1 MOL     -0.542479
    166 C51        -3.2290   -4.5710   -2.7730 c3        1 MOL      0.288149
    167 C52        -4.4260   -4.8300   -3.6480 c3        1 MOL     -0.199335
    168 C53        -4.0940   -5.9400   -4.6880 c         1 MOL      0.690731
    169 O23        -4.0920   -5.6850   -5.8970 o         1 MOL     -0.651343
    170 O24        -3.7120   -7.0310   -4.1990 o         1 MOL     -0.651343
    171 H80        -5.1060   -4.2360   -1.2110 hn        1 MOL      0.347738
    172 H81        -3.6550   -2.3700   -2.6760 h1        1 MOL      0.066429
    173 H82        -3.0790   -5.4030   -2.0850 hc        1 MOL     -0.024517
    174 H83        -2.3190   -4.5400   -3.3770 hc        1 MOL     -0.024517
    175 H84        -4.6490   -3.9130   -4.1820 hc        1 MOL     -0.035594
    176 H85        -5.2960   -5.1990   -3.0950 hc        1 MOL     -0.035594
    177 N15        -1.8710   -3.2220   -0.0300 n         1 MOL      0.001314
    178 C54        -2.2280   -4.4930    0.5870 c3        1 MOL     -0.058599
    179 H86        -3.2190   -4.4140    1.0350 h1        1 MOL      0.025424
    180 H87        -2.2340   -5.2760   -0.1710 h1        1 MOL      0.025424
    181 H88        -1.4990   -4.7400    1.3600 h1        1 MOL      0.025424
    182 H89        -1.0460   -2.8200    0.3910 hn        1 MOL      0.226021
    183 Ca1        -0.4990    0.7680   -1.4020 Ca        1 MOL      1.804829
    184 O25        -3.0470    0.7290   -1.0280 oh        1 MOL     -0.838211
    185 H90        -3.7640    1.2140   -1.4280 ho        1 MOL      0.409278
    186 H91        -3.4100   -0.1390   -0.8610 ho        1 MOL      0.409278
    187 O26         1.6750   -0.0230   -2.8260 oh        1 MOL     -0.838211
    188 H92         2.5440   -0.0080   -2.4280 ho        1 MOL      0.409278
    189 H93         1.8380   -0.1880   -3.7550 ho        1 MOL      0.409278
    190 O27        -1.7710    0.2090   -3.6340 oh        1 MOL     -0.838211
    191 H94        -1.4490    0.0240   -4.5140 ho        1 MOL      0.409278
    192 H95        -2.7280    0.1960   -3.7240 ho        1 MOL      0.409278
@<TRIPOS>BOND
     1    1    2 1   
     2    1    4 1   
     3    1    5 1   
     4    1    6 1   
     5    2    3 2   
     6    2    7 1   
     7    7    8 1   
     8    7   15 1   
     9    8    9 1   
    10    8   11 1   
    11    8   16 1   
    12    9   10 2   
    13    9   19 1   
    14   11   12 1   
    15   11   17 1   
    16   11   18 1   
    17   12   13 1   
    18   12   14 1   
    19   19   20 1   
    20   19   28 1   
    21   20   21 1   
    22   20   23 1   
    23   20   29 1   
    24   21   22 2   
    25   21   41 1   
    26   23   24 1   
    27   23   30 1   
    28   23   31 1   
    29   24   25 1   
    30   24   32 1   
    31   24   33 1   
    32   25   26 1   
    33   25   34 1   
    34   25   35 1   
    35   26   27 1   
    36   26   36 1   
    37   26   37 1   
    38   27   38 1   
    39   27   39 1   
    40   27   40 1   
    41   41   42 1   
    42   41   49 1   
    43   42   43 1   
    44   42   45 1   
    45   42   50 1   
    46   43   44 2   
    47   43   53 1   
    48   45   46 1   
    49   45   51 1   
    50   45   52 1   
    51   46   47 1   
    52   46   48 1   
    53   53   54 1   
    54   53   57 1   
    55   54   55 1   
    56   54   58 1   
    57   54   59 1   
    58   55   56 2   
    59   55   60 1   
    60   60   61 1   
    61   60   68 1   
    62   61   62 1   
    63   61   64 1   
    64   61   69 1   
    65   62   63 2   
    66   62   72 1   
    67   64   65 1   
    68   64   70 1   
    69   64   71 1   
    70   65   66 1   
    71   65   67 1   
    72   72   73 1   
    73   72   76 1   
    74   73   74 1   
    75   73   77 1   
    76   73   78 1   
    77   74   75 2   
    78   74   79 1   
    79   79   80 1   
    80   79   86 1   
    81   80   81 1   
    82   80   83 1   
    83   80   87 1   
    84   81   82 2   
    85   81   93 1   
    86   83   84 1   
    87   83   85 1   
    88   83   88 1   
    89   84   90 1   
    90   84   91 1   
    91   84   92 1   
    92   85   89 1   
    93   93   94 1   
    94   93  101 1   
    95   94   95 1   
    96   94   97 1   
    97   94  102 1   
    98   95   96 2   
    99   95  112 1   
   100   97   98 1   
   101   97   99 1   
   102   97  103 1   
   103   98  100 1   
   104   98  104 1   
   105   98  105 1   
   106   99  106 1   
   107   99  107 1   
   108   99  108 1   
   109  100  109 1   
   110  100  110 1   
   111  100  111 1   
   112  112  113 1   
   113  112  119 1   
   114  113  114 1   
   115  113  116 1   
   116  113  120 1   
   117  114  115 2   
   118  114  126 1   
   119  116  117 1   
   120  116  118 1   
   121  116  121 1   
   122  117  123 1   
   123  117  124 1   
   124  117  125 1   
   125  118  122 1   
   126  126  127 1   
   127  126  133 1   
   128  127  128 1   
   129  127  130 1   
   130  127  134 1   
   131  128  129 2   
   132  128  140 1   
   133  130  131 1   
   134  130  132 1   
   135  130  135 1   
   136  131  137 1   
   137  131  138 1   
   138  131  139 1   
   139  132  136 1   
   140  140  141 1   
   141  140  149 1   
   142  141  142 1   
   143  141  144 1   
   144  141  150 1   
   145  142  143 2   
   146  142  162 1   
   147  144  145 1   
   148  144  151 1   
   149  144  152 1   
   150  145  146 1   
   151  145  153 1   
   152  145  154 1   
   153  146  147 1   
   154  146  155 1   
   155  146  156 1   
   156  147  148 1   
   157  147  157 1   
   158  147  158 1   
   159  148  159 1   
   160  148  160 1   
   161  148  161 1   
   162  162  163 1   
   163  162  171 1   
   164  163  164 1   
   165  163  166 1   
   166  163  172 1   
   167  164  165 2   
   168  164  177 1   
   169  166  167 1   
   170  166  173 1   
   171  166  174 1   
   172  167  168 1   
   173  167  175 1   
   174  167  176 1   
   175  168  169 1   
   176  168  170 1   
   177  177  178 1   
   178  177  182 1   
   179  178  179 1   
   180  178  180 1   
   181  178  181 1   
   182  184  185 1   
   183  184  186 1   
   184  187  188 1   
   185  187  189 1   
   186  190  191 1   
   187  190  192 1   
@<TRIPOS>SUBSTRUCTURE
     1 MOL         1 TEMP              0 ****  ****    0 ROOT
