@<TRIPOS>MOLECULE
MOL
  195   189     1     0     0
SMALL
resp


@<TRIPOS>ATOM
      1 C1          5.8950   -0.4270    5.9960 c3        1 MOL     -0.253514
      2 C2          5.5210   -0.1750    4.5020 c         1 MOL      0.867056
      3 O1          5.2440    0.8980    4.0780 o         1 MOL     -0.659194
      4 H1          5.9460   -1.5000    6.1810 hc        1 MOL      0.054675
      5 H2          6.8640    0.0250    6.2090 hc        1 MOL      0.054675
      6 H3          5.1370    0.0170    6.6400 hc        1 MOL      0.054675
      7 N1          5.4030   -1.1830    3.6640 n         1 MOL     -0.635336
      8 C3          5.0750   -1.0830    2.2510 c3        1 MOL      0.634083
      9 C4          3.5970   -0.7420    1.9350 c         1 MOL     -0.070996
     10 O2          3.2610   -0.7930    0.7250 o         1 MOL     -0.192546
     11 C5          5.7460   -2.2510    1.5170 c3        1 MOL     -0.278208
     12 C6          7.2420   -2.5560    1.8870 c         1 MOL      0.679815
     13 O3          7.4930   -2.8830    3.0810 o         1 MOL     -0.685267
     14 O4          8.1760   -2.3660    1.0640 o         1 MOL     -0.685267
     15 H4          5.7450   -2.1010    3.9240 hn        1 MOL      0.232805
     16 H5          5.5720   -0.1920    1.8340 h1        1 MOL     -0.011531
     17 H6          5.7870   -2.0810    0.4430 hc        1 MOL      0.001961
     18 H7          5.1450   -3.1320    1.7500 hc        1 MOL      0.001961
     19 N2          2.7190   -0.5980    2.9460 n         1 MOL     -0.392305
     20 C7          1.2320   -0.6660    2.7220 c3        1 MOL      0.573547
     21 C8          0.5600    0.7120    2.8430 c         1 MOL      0.231092
     22 O5          0.8550    1.5360    3.6960 o         1 MOL     -0.484770
     23 C9          0.5700   -1.5820    3.6550 c3        1 MOL     -0.076786
     24 C10         0.8920   -3.0500    3.2200 c3        1 MOL     -0.019222
     25 C11         0.2390   -4.0500    4.2010 c3        1 MOL      0.069280
     26 C12         0.5620   -5.4190    3.7140 c3        1 MOL      0.051529
     27 N3          0.1640   -6.4880    4.6240 n4        1 MOL     -0.240716
     28 H8          3.1250   -0.6930    3.8680 hn        1 MOL      0.225067
     29 H9          1.0770   -0.9920    1.6970 h1        1 MOL     -0.038036
     30 H10        -0.5270   -1.5110    3.6840 hc        1 MOL      0.013650
     31 H11         0.9830   -1.4190    4.6480 hc        1 MOL      0.013650
     32 H12         1.9790   -3.1150    3.3020 hc        1 MOL      0.014457
     33 H13         0.6600   -3.1200    2.1550 hc        1 MOL      0.014457
     34 H14        -0.8420   -4.0640    4.2360 hc        1 MOL      0.007292
     35 H15         0.6210   -3.9830    5.2230 hc        1 MOL      0.007292
     36 H16         1.6440   -5.5110    3.5880 hx        1 MOL      0.057354
     37 H17        -0.0320   -5.5480    2.8080 hx        1 MOL      0.057354
     38 H18         0.6800   -6.5350    5.4940 hn        1 MOL      0.287223
     39 H19        -0.8100   -6.4450    4.8820 hn        1 MOL      0.287223
     40 H20         0.2120   -7.4190    4.2380 hn        1 MOL      0.287223
     41 N4         -0.4430    1.0310    1.9960 n         1 MOL     -0.172154
     42 C13        -1.1010    0.3920    0.8660 c3        1 MOL     -0.265593
     43 C14        -1.5910   -1.0540    1.1380 c         1 MOL      0.495001
     44 O6         -1.0700   -1.9700    0.6410 o         1 MOL     -0.538578
     45 C15        -0.2460    0.5340   -0.4570 c3        1 MOL     -0.740799
     46 C16         0.0840    1.9370   -0.9430 c         1 MOL      1.081813
     47 O7          0.8460    2.0390   -1.9410 o         1 MOL     -0.828028
     48 O8         -0.4870    2.8940   -0.4130 o         1 MOL     -0.828028
     49 H21        -0.7330    1.9610    2.2730 hn        1 MOL      0.223787
     50 H22        -2.0090    0.9430    0.6240 h1        1 MOL      0.093030
     51 H23        -0.8300   -0.0460   -1.1710 hc        1 MOL      0.261202
     52 H24         0.6800   -0.0240   -0.3060 hc        1 MOL      0.261202
     53 N5         -2.6170   -1.1200    2.0090 n         1 MOL     -0.353545
     54 C17        -3.5620   -0.0460    2.3780 c3        1 MOL     -0.008637
     55 C18        -4.8180   -0.5260    3.0380 c         1 MOL      0.546446
     56 O9         -4.8510   -1.5960    3.6280 o         1 MOL     -0.572598
     57 H25        -3.0360   -2.0270    2.1940 hn        1 MOL      0.261103
     58 H26        -3.8500    0.4340    1.4390 h1        1 MOL      0.069942
     59 H27        -3.1030    0.6940    3.0210 h1        1 MOL      0.069942
     60 N6         -5.9520    0.1660    3.1380 n         1 MOL     -0.361360
     61 C19        -6.2150    1.4840    2.5630 c3        1 MOL     -0.117223
     62 C20        -7.0080    1.2720    1.2370 c         1 MOL      0.334400
     63 O10        -7.5580    0.2120    0.9550 o         1 MOL     -0.344797
     64 C21        -6.9270    2.3520    3.5610 c3        1 MOL     -0.045079
     65 C22        -8.1180    1.6680    4.2400 c         1 MOL      0.665328
     66 O11        -8.0640    1.4830    5.4490 o         1 MOL     -0.669074
     67 O12        -9.0040    1.2730    3.4520 o         1 MOL     -0.669074
     68 H28        -6.8220   -0.3340    3.2160 hn        1 MOL      0.350527
     69 H29        -5.3620    2.0450    2.1760 h1        1 MOL      0.081858
     70 H30        -7.2790    3.2720    3.0970 hc        1 MOL     -0.009282
     71 H31        -6.1890    2.7130    4.2760 hc        1 MOL     -0.009282
     72 N7         -7.1520    2.3790    0.4070 n         1 MOL     -0.241828
     73 C23        -7.9180    2.5040   -0.8730 c3        1 MOL     -0.541262
     74 C24        -7.2440    1.9170   -2.0790 c         1 MOL      0.505861
     75 O13        -7.8040    1.8180   -3.2050 o         1 MOL     -0.544729
     76 H32        -6.5680    3.1600    0.6530 hn        1 MOL      0.239943
     77 H33        -8.0390    3.5440   -1.1700 h1        1 MOL      0.246812
     78 H34        -8.8940    2.0120   -0.8760 h1        1 MOL      0.246812
     79 N8         -5.9740    1.5900   -1.8660 n         1 MOL     -0.170402
     80 C25        -5.2760    0.5700   -2.6910 c3        1 MOL      0.108179
     81 C26        -4.5260   -0.3920   -1.8550 c         1 MOL      0.254351
     82 O14        -3.8490   -0.0330   -0.9350 o         1 MOL     -0.324311
     83 C27        -4.2930    1.1570   -3.7050 c3        1 MOL      0.212936
     84 C28        -3.3150    2.1780   -3.1750 c3        1 MOL     -0.057947
     85 O15        -4.9970    1.8560   -4.6930 oh        1 MOL     -0.623212
     86 H35        -5.5950    1.7620   -0.9460 hn        1 MOL      0.102003
     87 H36        -6.0440    0.0490   -3.2620 h1        1 MOL      0.039574
     88 H37        -3.8310    0.2960   -4.2020 h1        1 MOL      0.017860
     89 H38        -5.6170    1.3310   -5.2030 ho        1 MOL      0.403772
     90 H39        -2.7530    2.6440   -3.9880 hc        1 MOL      0.016949
     91 H40        -3.8210    3.0370   -2.7180 hc        1 MOL      0.016949
     92 H41        -2.6460    1.6780   -2.4820 hc        1 MOL      0.016949
     93 N9         -4.7230   -1.6750   -2.0780 n         1 MOL     -0.228129
     94 C29        -4.3980   -2.7890   -1.0850 c3        1 MOL     -0.077818
     95 C30        -3.3930   -3.7030   -1.8530 c         1 MOL      0.580614
     96 O16        -3.7000   -4.8690   -2.1180 o         1 MOL     -0.547735
     97 C31        -5.5840   -3.6140   -0.5310 c3        1 MOL      0.057504
     98 C32        -6.7050   -2.5840    0.0420 c3        1 MOL     -0.091184
     99 C33        -5.2250   -4.6090    0.5500 c3        1 MOL     -0.247162
    100 C34        -8.0590   -3.2690   -0.0200 c3        1 MOL     -0.125133
    101 H42        -5.2010   -1.9580   -2.9130 hn        1 MOL      0.249195
    102 H43        -3.9070   -2.3700   -0.2050 h1        1 MOL      0.064668
    103 H44        -6.0560   -4.0920   -1.3890 hc        1 MOL      0.041725
    104 H45        -6.7750   -1.6670   -0.5570 hc        1 MOL      0.048463
    105 H46        -6.5940   -2.2860    1.0830 hc        1 MOL      0.048463
    106 H47        -4.8180   -4.0520    1.3930 hc        1 MOL      0.070438
    107 H48        -6.0710   -5.2370    0.8170 hc        1 MOL      0.070438
    108 H49        -4.3670   -5.2500    0.3110 hc        1 MOL      0.070438
    109 H50        -8.1330   -4.2720    0.3940 hc        1 MOL      0.038532
    110 H51        -8.7070   -2.6000    0.5370 hc        1 MOL      0.038532
    111 H52        -8.3630   -3.3690   -1.0570 hc        1 MOL      0.038532
    112 N10        -2.2070   -3.2360   -2.2140 n         1 MOL     -0.335235
    113 C35        -1.2710   -3.8950   -3.1850 c3        1 MOL     -0.162583
    114 C36         0.2310   -3.8100   -2.8820 c         1 MOL      0.450569
    115 O17         1.0170   -4.3460   -3.6410 o         1 MOL     -0.516225
    116 C37        -1.5120   -3.3640   -4.6130 c3        1 MOL      0.361802
    117 C38        -1.5740   -1.8710   -4.6750 c3        1 MOL     -0.266423
    118 O18        -2.6610   -3.9500   -5.1160 oh        1 MOL     -0.629317
    119 H53        -1.9700   -2.2660   -2.0530 hn        1 MOL      0.221187
    120 H54        -1.4590   -4.9580   -3.2670 h1        1 MOL      0.129170
    121 H55        -0.7330   -3.6830   -5.3030 h1        1 MOL      0.022848
    122 H56        -2.4000   -4.7030   -5.6520 ho        1 MOL      0.394180
    123 H57        -2.5500   -1.4040   -4.5320 hc        1 MOL      0.076382
    124 H58        -0.8370   -1.4320   -4.0050 hc        1 MOL      0.076382
    125 H59        -1.2460   -1.6430   -5.6920 hc        1 MOL      0.076382
    126 N11         0.5740   -3.2460   -1.6830 n         1 MOL     -0.279895
    127 C39         1.9790   -2.7870   -1.4030 c3        1 MOL      0.090152
    128 C40         2.4010   -1.7720   -2.4960 c         1 MOL      0.184148
    129 O19         1.9020   -1.6590   -3.6450 o         1 MOL     -0.427807
    130 C41         2.9200   -3.9620   -1.3130 c3        1 MOL      0.543869
    131 C42         2.5550   -5.1870   -0.4430 c3        1 MOL     -0.389080
    132 O20         4.2490   -3.6480   -0.9110 oh        1 MOL     -0.546754
    133 H60         0.0250   -3.2930   -0.8420 hn        1 MOL      0.197082
    134 H61         1.9290   -2.2570   -0.4470 h1        1 MOL      0.052860
    135 H62         3.0590   -4.3200   -2.3340 h1        1 MOL     -0.028337
    136 H63         4.7380   -4.1720   -1.5470 ho        1 MOL      0.334575
    137 H64         3.2620   -6.0210   -0.5200 hc        1 MOL      0.069291
    138 H65         2.3850   -4.7060    0.5240 hc        1 MOL      0.069291
    139 H66         1.6350   -5.5520   -0.9010 hc        1 MOL      0.069291
    140 N12         3.3460   -0.8710   -2.0640 n         1 MOL     -0.043987
    141 C43         3.8780    0.2950   -2.8320 c3        1 MOL     -0.192474
    142 C44         4.2300    1.5820   -2.0620 c         1 MOL      0.750646
    143 O21         4.5730    2.6520   -2.6150 o         1 MOL     -0.638174
    144 C45         5.0310   -0.0940   -3.7870 c3        1 MOL     -0.235113
    145 C46         6.2270   -0.7660   -3.0960 c3        1 MOL      0.305465
    146 C47         7.4350   -0.7230   -3.9960 c3        1 MOL     -0.150650
    147 C48         8.3740   -1.8440   -3.5900 c3        1 MOL     -0.067853
    148 N13         9.2460   -1.3580   -2.4730 n4        1 MOL     -0.309225
    149 H67         3.6370   -1.1330   -1.1380 hn        1 MOL      0.103505
    150 H68         3.0900    0.6190   -3.5190 h1        1 MOL      0.152183
    151 H69         5.4050    0.7690   -4.3400 hc        1 MOL      0.074560
    152 H70         4.6390   -0.7880   -4.5220 hc        1 MOL      0.074560
    153 H71         5.9390   -1.8000   -2.8980 hc        1 MOL     -0.074297
    154 H72         6.3790   -0.2110   -2.1680 hc        1 MOL     -0.074297
    155 H73         7.9030    0.2570   -4.0830 hc        1 MOL      0.062390
    156 H74         7.0420   -0.8770   -5.0000 hc        1 MOL      0.062390
    157 H75         9.0090   -2.1180   -4.4400 hx        1 MOL      0.117128
    158 H76         7.8840   -2.7600   -3.2700 hx        1 MOL      0.117128
    159 H77         9.6430   -0.4880   -2.7930 hn        1 MOL      0.311432
    160 H78         8.8020   -1.1350   -1.5840 hn        1 MOL      0.311432
    161 H79        10.0140   -1.9820   -2.2860 hn        1 MOL      0.311432
    162 N14         4.1200    1.5340   -0.7460 n         1 MOL     -0.071744
    163 C49         4.3630    2.7490    0.0190 c3        1 MOL     -0.664607
    164 C50         5.8770    2.8620    0.3770 c         1 MOL      0.622578
    165 O22         6.6160    1.9440    0.6640 o         1 MOL     -0.515470
    166 C51         3.2580    2.7930    1.1550 c3        1 MOL      0.705275
    167 C52         3.4600    3.9650    2.1130 c3        1 MOL     -0.851779
    168 C53         3.2760    5.1760    1.2930 c         1 MOL      0.958753
    169 O23         2.1220    5.5080    0.9550 o         1 MOL     -0.813406
    170 O24         4.3110    5.7460    0.8520 o         1 MOL     -0.813406
    171 H80         3.6520    0.7110   -0.3830 hn        1 MOL      0.007289
    172 H81         4.1020    3.6630   -0.5260 h1        1 MOL      0.174266
    173 H82         3.3730    1.9130    1.7870 hc        1 MOL     -0.119932
    174 H83         2.2580    2.7980    0.7170 hc        1 MOL     -0.119932
    175 H84         4.5220    3.8340    2.3310 hc        1 MOL      0.238241
    176 H85         2.7120    3.8470    2.8990 hc        1 MOL      0.238241
    177 N15         6.3660    4.1230    0.2840 n         1 MOL     -0.354285
    178 C54         7.7330    4.6540    0.4800 c3        1 MOL     -0.263557
    179 H86         7.7010    5.7430    0.4920 h1        1 MOL      0.110258
    180 H87         8.1320    4.2910    1.4270 h1        1 MOL      0.110258
    181 H88         8.3730    4.3190   -0.3370 h1        1 MOL      0.110258
    182 H89         5.6400    4.7930    0.0990 hn        1 MOL      0.432268
    183 Ca1        -0.1170    5.4060   -0.2530 Ca        1 MOL      1.735182
    184 O25        -1.9120    4.9160   -2.0730 oh        1 MOL     -0.843297
    185 H90        -2.2640    4.0960   -2.4360 ho        1 MOL      0.421082
    186 H91        -2.6790    5.3570   -1.7030 ho        1 MOL      0.421082
    187 O26         0.4980    7.2800   -2.2330 oh        1 MOL     -0.843297
    188 H92         0.1500    8.1280   -1.9490 ho        1 MOL      0.421082
    189 H93         0.1470    7.1580   -3.1130 ho        1 MOL      0.421082
    190 O27        -2.7300    5.8890    0.4550 oh        1 MOL     -0.843297
    191 H94        -3.1510    5.4140    1.1660 ho        1 MOL      0.421082
    192 H95        -3.4460    6.1630   -0.1110 ho        1 MOL      0.421082
    193 O28         1.7010    4.5170   -2.1570 oh        1 MOL     -0.843297
    194 H96         1.5510    3.5710   -2.2020 ho        1 MOL      0.421082
    195 H97         1.8110    4.7840   -3.0680 ho        1 MOL      0.421082
@<TRIPOS>BOND
     1    1    2 1   
     2    1    4 1   
     3    1    5 1   
     4    1    6 1   
     5    2    3 2   
     6    2    7 1   
     7    7    8 1   
     8    7   15 1   
     9    8    9 1   
    10    8   11 1   
    11    8   16 1   
    12    9   10 2   
    13    9   19 1   
    14   11   12 1   
    15   11   17 1   
    16   11   18 1   
    17   12   13 1   
    18   12   14 1   
    19   19   20 1   
    20   19   28 1   
    21   20   21 1   
    22   20   23 1   
    23   20   29 1   
    24   21   22 2   
    25   21   41 1   
    26   23   24 1   
    27   23   30 1   
    28   23   31 1   
    29   24   25 1   
    30   24   32 1   
    31   24   33 1   
    32   25   26 1   
    33   25   34 1   
    34   25   35 1   
    35   26   27 1   
    36   26   36 1   
    37   26   37 1   
    38   27   38 1   
    39   27   39 1   
    40   27   40 1   
    41   41   42 1   
    42   41   49 1   
    43   42   43 1   
    44   42   45 1   
    45   42   50 1   
    46   43   44 2   
    47   43   53 1   
    48   45   46 1   
    49   45   51 1   
    50   45   52 1   
    51   46   47 1   
    52   46   48 1   
    53   53   54 1   
    54   53   57 1   
    55   54   55 1   
    56   54   58 1   
    57   54   59 1   
    58   55   56 2   
    59   55   60 1   
    60   60   61 1   
    61   60   68 1   
    62   61   62 1   
    63   61   64 1   
    64   61   69 1   
    65   62   63 2   
    66   62   72 1   
    67   64   65 1   
    68   64   70 1   
    69   64   71 1   
    70   65   66 1   
    71   65   67 1   
    72   72   73 1   
    73   72   76 1   
    74   73   74 1   
    75   73   77 1   
    76   73   78 1   
    77   74   75 2   
    78   74   79 1   
    79   79   80 1   
    80   79   86 1   
    81   80   81 1   
    82   80   83 1   
    83   80   87 1   
    84   81   82 2   
    85   81   93 1   
    86   83   84 1   
    87   83   85 1   
    88   83   88 1   
    89   84   90 1   
    90   84   91 1   
    91   84   92 1   
    92   85   89 1   
    93   93   94 1   
    94   93  101 1   
    95   94   95 1   
    96   94   97 1   
    97   94  102 1   
    98   95   96 2   
    99   95  112 1   
   100   97   98 1   
   101   97   99 1   
   102   97  103 1   
   103   98  100 1   
   104   98  104 1   
   105   98  105 1   
   106   99  106 1   
   107   99  107 1   
   108   99  108 1   
   109  100  109 1   
   110  100  110 1   
   111  100  111 1   
   112  112  113 1   
   113  112  119 1   
   114  113  114 1   
   115  113  116 1   
   116  113  120 1   
   117  114  115 2   
   118  114  126 1   
   119  116  117 1   
   120  116  118 1   
   121  116  121 1   
   122  117  123 1   
   123  117  124 1   
   124  117  125 1   
   125  118  122 1   
   126  126  127 1   
   127  126  133 1   
   128  127  128 1   
   129  127  130 1   
   130  127  134 1   
   131  128  129 2   
   132  128  140 1   
   133  130  131 1   
   134  130  132 1   
   135  130  135 1   
   136  131  137 1   
   137  131  138 1   
   138  131  139 1   
   139  132  136 1   
   140  140  141 1   
   141  140  149 1   
   142  141  142 1   
   143  141  144 1   
   144  141  150 1   
   145  142  143 2   
   146  142  162 1   
   147  144  145 1   
   148  144  151 1   
   149  144  152 1   
   150  145  146 1   
   151  145  153 1   
   152  145  154 1   
   153  146  147 1   
   154  146  155 1   
   155  146  156 1   
   156  147  148 1   
   157  147  157 1   
   158  147  158 1   
   159  148  159 1   
   160  148  160 1   
   161  148  161 1   
   162  162  163 1   
   163  162  171 1   
   164  163  164 1   
   165  163  166 1   
   166  163  172 1   
   167  164  165 2   
   168  164  177 1   
   169  166  167 1   
   170  166  173 1   
   171  166  174 1   
   172  167  168 1   
   173  167  175 1   
   174  167  176 1   
   175  168  169 1   
   176  168  170 1   
   177  177  178 1   
   178  177  182 1   
   179  178  179 1   
   180  178  180 1   
   181  178  181 1   
   182  184  185 1   
   183  184  186 1   
   184  187  188 1   
   185  187  189 1   
   186  190  191 1   
   187  190  192 1   
   188  193  194 1   
   189  193  195 1   
@<TRIPOS>SUBSTRUCTURE
     1 MOL         1 TEMP              0 ****  ****    0 ROOT
