@<TRIPOS>MOLECULE
MOL
  195   189     1     0     0
SMALL
resp


@<TRIPOS>ATOM
      1 C1         -6.5650    3.0290   -0.7740 c3        1 MOL     -0.411646
      2 C2         -5.3250    2.1950   -0.4460 c         1 MOL      0.754744
      3 O1         -5.3840    0.9720   -0.5820 o         1 MOL     -0.629148
      4 H1         -6.7140    3.0490   -1.8540 hc        1 MOL      0.102626
      5 H2         -7.4380    2.5860   -0.2950 hc        1 MOL      0.102626
      6 H3         -6.4270    4.0460   -0.4080 hc        1 MOL      0.102626
      7 N1         -4.1130    2.6830   -0.0300 n         1 MOL     -0.277701
      8 C3         -3.8950    4.0020    0.4770 c3        1 MOL      0.138415
      9 C4         -3.2120    4.9320   -0.5630 c         1 MOL      0.281951
     10 O2         -2.7440    6.0140   -0.2320 o         1 MOL     -0.499005
     11 C5         -3.2230    4.0620    1.7910 c3        1 MOL     -0.054405
     12 C6         -3.7300    3.0670    2.8340 c         1 MOL      0.564038
     13 O3         -3.3630    1.8620    2.7640 o         1 MOL     -0.692491
     14 O4         -4.5430    3.4770    3.7130 o         1 MOL     -0.692491
     15 H4         -3.3490    2.0460    0.1220 hn        1 MOL      0.193619
     16 H5         -4.8160    4.5340    0.6950 h1        1 MOL      0.051281
     17 H6         -3.3270    5.0610    2.2120 hc        1 MOL      0.029595
     18 H7         -2.1740    3.7940    1.6470 hc        1 MOL      0.029595
     19 N2         -3.1320    4.4280   -1.7940 n         1 MOL     -0.048191
     20 C7         -2.4380    5.0570   -2.8890 c3        1 MOL     -0.494170
     21 C8         -0.9500    5.1270   -2.7950 c         1 MOL      0.586950
     22 O5         -0.3600    5.7050   -3.6870 o         1 MOL     -0.578040
     23 C9         -2.8210    4.4360   -4.2500 c3        1 MOL      0.327632
     24 C10        -2.6780    2.9420   -4.3540 c3        1 MOL      0.045021
     25 C11        -4.2860    4.7620   -4.5550 c3        1 MOL     -0.304666
     26 C12        -1.3750    2.1850   -4.3460 c3        1 MOL     -0.206272
     27 H8         -3.6480    3.5960   -2.0350 hn        1 MOL      0.067035
     28 H9         -2.7860    6.0820   -2.9540 h1        1 MOL      0.180827
     29 H10        -2.2610    4.9010   -5.0680 hc        1 MOL      0.017814
     30 H11        -3.0750    2.7660   -5.3550 hc        1 MOL     -0.030438
     31 H12        -3.3020    2.4540   -3.6170 hc        1 MOL     -0.030438
     32 H13        -4.5480    4.2840   -5.5000 hc        1 MOL      0.055607
     33 H14        -4.9980    4.2810   -3.8860 hc        1 MOL      0.055607
     34 H15        -4.4480    5.8300   -4.7010 hc        1 MOL      0.055607
     35 H16        -1.4610    1.2180   -4.8390 hc        1 MOL      0.061371
     36 H17        -0.5120    2.7490   -4.7050 hc        1 MOL      0.061371
     37 H18        -1.0450    1.8240   -3.3670 hc        1 MOL      0.061371
     38 N3         -0.3320    4.5700   -1.7790 n         1 MOL     -0.217908
     39 C13         1.1240    4.7360   -1.5210 c3        1 MOL      0.029092
     40 C14         1.4500    4.4870   -0.0770 c         1 MOL      0.451674
     41 O6          0.5150    4.1650    0.7200 o         1 MOL     -0.496066
     42 C15         1.9800    3.6930   -2.3290 c3        1 MOL     -0.205442
     43 C16         3.4140    4.1050   -2.8250 c         1 MOL      0.695827
     44 O7          3.7920    5.2900   -2.8470 o         1 MOL     -0.713320
     45 O8          4.1100    3.1440   -3.3030 o         1 MOL     -0.713320
     46 H19        -0.9400    4.2110   -1.0530 hn        1 MOL      0.221846
     47 H20         1.4470    5.7450   -1.7690 h1        1 MOL      0.069782
     48 H21         1.4790    3.5110   -3.2820 hc        1 MOL      0.033748
     49 H22         1.9390    2.6940   -1.8990 hc        1 MOL      0.033748
     50 N4          2.6600    4.6990    0.4040 n         1 MOL     -0.469889
     51 C17         3.2110    4.1710    1.6230 c3        1 MOL     -0.026523
     52 C18         3.8750    2.7980    1.4920 c         1 MOL      0.601699
     53 O9          3.9410    2.2430    0.3930 o         1 MOL     -0.486542
     54 H23         3.4550    5.0130   -0.1360 hn        1 MOL      0.312452
     55 H24         2.4330    3.9770    2.3670 h1        1 MOL      0.070924
     56 H25         3.9600    4.8400    2.0610 h1        1 MOL      0.070924
     57 N5          4.4840    2.3050    2.6240 n         1 MOL     -0.756832
     58 C19         5.4560    1.2700    2.6430 c3        1 MOL      0.417209
     59 C20         6.7800    1.7680    3.2840 c         1 MOL      0.637891
     60 O10         6.7860    2.7370    3.9690 o         1 MOL     -0.551665
     61 C21         4.8320    0.0330    3.3030 c3        1 MOL     -0.259831
     62 C22         4.2070    0.3210    4.6850 c         1 MOL      0.719166
     63 O11         4.7920   -0.0310    5.6500 o         1 MOL     -0.702644
     64 O12         3.1250    0.9440    4.7560 o         1 MOL     -0.702644
     65 H26         4.4680    2.8500    3.4760 hn        1 MOL      0.335233
     66 H27         5.6020    0.8890    1.6350 h1        1 MOL     -0.018421
     67 H28         5.5180   -0.8080    3.3600 hc        1 MOL      0.025420
     68 H29         4.0670   -0.3780    2.6290 hc        1 MOL      0.025420
     69 N6          7.9860    1.2050    3.0110 n         1 MOL     -0.650104
     70 C23         8.2640    0.0910    2.0910 c3        1 MOL      0.066731
     71 C24         8.3710    0.6500    0.6330 c         1 MOL      0.525579
     72 O13         8.9630    1.7070    0.4970 o         1 MOL     -0.552057
     73 H30         8.8360    1.6610    3.3170 hn        1 MOL      0.335923
     74 H31         7.4540   -0.6300    2.0930 h1        1 MOL      0.062818
     75 H32         9.1600   -0.4690    2.3870 h1        1 MOL      0.062818
     76 N7          8.0600    0.0210   -0.5060 n         1 MOL     -0.482973
     77 C25         7.5940   -1.3650   -0.6750 c3        1 MOL      0.291902
     78 C26         6.2820   -1.7350   -0.0260 c         1 MOL      0.262893
     79 O14         6.2230   -2.2980    1.0980 o         1 MOL     -0.495178
     80 C27         8.6880   -2.3950   -0.3680 c3        1 MOL     -0.165547
     81 C28        10.0390   -1.9970   -1.0730 c3        1 MOL     -0.119295
     82 C29        10.9770   -3.1530   -1.1380 c         1 MOL      0.666721
     83 N8         12.2250   -2.8850   -0.8650 n         1 MOL     -0.783988
     84 O15        10.7350   -4.2320   -1.7350 o         1 MOL     -0.574740
     85 H33         8.3360    0.5710   -1.3010 hn        1 MOL      0.296437
     86 H34         7.4590   -1.5480   -1.7410 h1        1 MOL      0.031851
     87 H35         8.3510   -3.3590   -0.7330 hc        1 MOL      0.043642
     88 H36         8.8880   -2.3710    0.7000 hc        1 MOL      0.043642
     89 H37        10.4840   -1.1540   -0.5380 hc        1 MOL      0.037618
     90 H38         9.7860   -1.6320   -2.0660 hc        1 MOL      0.037618
     91 H39        12.5400   -1.9920   -0.5180 hn        1 MOL      0.350601
     92 H40        12.9530   -3.5560   -1.0640 hn        1 MOL      0.350601
     93 N9          5.1780   -1.3210   -0.6240 n         1 MOL     -0.250409
     94 C30         3.8170   -1.8600   -0.4610 c3        1 MOL     -0.078967
     95 C31         2.7340   -0.7440   -0.6110 c         1 MOL      0.364645
     96 O16         2.7980   -0.0370   -1.6410 o         1 MOL     -0.416907
     97 C32         3.4730   -3.0820   -1.3320 c3        1 MOL      0.203418
     98 C33         2.3880   -3.9270   -0.6550 c3        1 MOL     -0.559683
     99 C34         4.7190   -4.0490   -1.4560 c3        1 MOL     -0.559683
    100 H41         5.3820   -0.6670   -1.3690 hn        1 MOL      0.230704
    101 H42         3.7340   -2.1880    0.5820 h1        1 MOL      0.127950
    102 H43         3.0790   -2.6180   -2.2400 hc        1 MOL      0.079848
    103 H44         2.7120   -4.1270    0.3620 hc        1 MOL      0.163497
    104 H45         1.3970   -3.4810   -0.6770 hc        1 MOL      0.163497
    105 H46         2.2790   -4.8220   -1.2790 hc        1 MOL      0.163497
    106 H47         4.4600   -4.9800   -1.9540 hc        1 MOL      0.163497
    107 H48         5.5070   -3.4870   -1.9630 hc        1 MOL      0.163497
    108 H49         5.0650   -4.3460   -0.4610 hc        1 MOL      0.163497
    109 N10         1.8020   -0.5820    0.3200 n         1 MOL     -0.258776
    110 C35         0.7920    0.5520    0.2820 c3        1 MOL      0.042162
    111 C36        -0.4800    0.2160   -0.5430 c         1 MOL      0.214576
    112 O17        -1.5480    0.7850   -0.3650 o         1 MOL     -0.544830
    113 C37         0.6840    1.1360    1.7470 c3        1 MOL      0.007682
    114 C38        -0.0730    0.3930    2.7750 c         1 MOL      0.642657
    115 N11         0.5640    0.0650    3.8900 n         1 MOL     -1.001328
    116 O18        -1.2170   -0.0470    2.6280 o         1 MOL     -0.578983
    117 H50         1.8680   -1.1270    1.1600 hn        1 MOL      0.252453
    118 H51         1.2720    1.3950   -0.2130 h1        1 MOL      0.222587
    119 H52         0.2250    2.1210    1.6510 hc        1 MOL      0.046315
    120 H53         1.6660    1.2690    2.2090 hc        1 MOL      0.046315
    121 H54         1.5470    0.2920    3.9450 hn        1 MOL      0.443294
    122 H55         0.1150   -0.6070    4.4910 hn        1 MOL      0.443294
    123 N12        -0.4180   -0.7160   -1.4580 n         1 MOL      0.136762
    124 C39        -1.6090   -1.2980   -2.1670 c3        1 MOL      0.062971
    125 C40        -2.1250   -2.4800   -1.2810 c         1 MOL      0.671212
    126 O19        -1.4020   -3.0680   -0.4390 o         1 MOL     -0.430686
    127 C41        -1.1570   -1.7210   -3.5520 c3        1 MOL     -0.009144
    128 C42         0.1920   -2.3360   -3.7040 ca        1 MOL      0.004262
    129 C43         0.3430   -3.7080   -3.3950 ca        1 MOL     -0.062869
    130 C44         1.2460   -1.7000   -4.3500 ca        1 MOL     -0.062869
    131 C45         1.4480   -4.4700   -3.8680 ca        1 MOL     -0.368819
    132 C46         2.4310   -2.3890   -4.7970 ca        1 MOL     -0.368819
    133 C47         2.4610   -3.7810   -4.5540 ca        1 MOL      0.360648
    134 O20         3.6320   -4.4110   -4.7870 oh        1 MOL     -0.538884
    135 H56         0.4320   -1.2640   -1.4920 hn        1 MOL     -0.217076
    136 H57        -2.4260   -0.5800   -2.2130 h1        1 MOL      0.054886
    137 H58        -1.2310   -0.8560   -4.2080 hc        1 MOL     -0.017316
    138 H59        -1.9220   -2.4640   -3.7920 hc        1 MOL     -0.017316
    139 H60        -0.4660   -4.1860   -2.8710 ha        1 MOL      0.134415
    140 H61         1.1550   -0.6440   -4.5280 ha        1 MOL      0.134415
    141 H62         1.4560   -5.5400   -3.8980 ha        1 MOL      0.184126
    142 H63         3.2350   -1.8370   -5.2440 ha        1 MOL      0.184126
    143 H64         4.2870   -3.9770   -5.3420 ho        1 MOL      0.390365
    144 N13        -3.3670   -2.9040   -1.5680 n         1 MOL     -0.666707
    145 C48        -4.2220   -3.7300   -0.7560 c3        1 MOL      0.194122
    146 C49        -5.7420   -3.5040   -1.0690 c         1 MOL      0.445591
    147 O21        -6.3030   -4.1790   -1.8830 o         1 MOL     -0.529724
    148 C50        -3.7160   -5.1930   -0.9700 c3        1 MOL     -0.071048
    149 C51        -4.3400   -6.1840   -0.0270 c3        1 MOL     -0.021675
    150 C52        -3.6990   -6.2240    1.3660 c         1 MOL      0.628738
    151 O22        -4.4030   -5.8070    2.3720 o         1 MOL     -0.716841
    152 O23        -2.4800   -6.4810    1.4890 o         1 MOL     -0.716841
    153 H65        -3.8470   -2.4670   -2.3400 hn        1 MOL      0.309611
    154 H66        -4.2030   -3.5100    0.3110 h1        1 MOL      0.121974
    155 H67        -2.6280   -5.1910   -0.9120 hc        1 MOL      0.017366
    156 H68        -4.0270   -5.4590   -1.9830 hc        1 MOL      0.017366
    157 H69        -4.3770   -7.1910   -0.4530 hc        1 MOL     -0.041686
    158 H70        -5.3820   -5.9180    0.1050 hc        1 MOL     -0.041686
    159 N14        -6.3510   -2.4590   -0.5060 n         1 MOL     -0.031630
    160 C53        -7.7340   -2.0570   -0.6850 c3        1 MOL     -0.121216
    161 C54        -7.8840   -1.4460   -2.0590 c         1 MOL      0.386445
    162 O24        -8.9180   -1.5420   -2.7200 o         1 MOL     -0.538398
    163 C55        -7.9620   -0.9600    0.3890 c3        1 MOL      0.038557
    164 C56        -7.8590   -1.5020    1.8070 c3        1 MOL     -0.013704
    165 C57        -6.5180   -1.2780    2.4590 c         1 MOL      0.710471
    166 O25        -5.5600   -1.9930    2.2240 o         1 MOL     -0.750806
    167 O26        -6.2820   -0.1540    2.9890 o         1 MOL     -0.750806
    168 H71        -5.7700   -1.9160    0.1190 hn        1 MOL     -0.055671
    169 H72        -8.4390   -2.8840   -0.5830 h1        1 MOL      0.116175
    170 H73        -9.0280   -0.7280    0.3650 hc        1 MOL      0.021309
    171 H74        -7.3660   -0.0650    0.1820 hc        1 MOL      0.021309
    172 H75        -8.1570   -2.5580    1.8140 hc        1 MOL     -0.019828
    173 H76        -8.5170   -0.9830    2.5040 hc        1 MOL     -0.019828
    174 N15        -6.7780   -0.7780   -2.5420 n         1 MOL     -0.235410
    175 C58        -6.5110   -0.5070   -4.0050 c3        1 MOL     -0.115441
    176 H77        -6.5650    0.5660   -4.1910 h1        1 MOL      0.070311
    177 H78        -5.5180   -0.8710   -4.2670 h1        1 MOL      0.070311
    178 H79        -7.2580   -1.0180   -4.6110 h1        1 MOL      0.070311
    179 H80        -6.0910   -0.6830   -1.8140 hn        1 MOL      0.240987
    180 Ca1        -3.8060   -0.5950    3.5140 Ca        1 MOL      1.786874
    181 O27        -3.7250    1.3390    5.3260 oh        1 MOL     -0.867031
    182 H81        -3.2050    1.7790    5.9970 ho        1 MOL      0.414982
    183 H82        -3.8020    1.9730    4.6130 ho        1 MOL      0.414982
    184 O28        -3.7390   -0.5660    0.7780 oh        1 MOL     -0.867031
    185 H83        -2.9880   -0.1000    0.4280 ho        1 MOL      0.414982
    186 H84        -4.5010   -0.0900    0.4470 ho        1 MOL      0.414982
    187 O29        -2.9260   -3.2230    3.1060 oh        1 MOL     -0.867031
    188 H85        -2.5120   -3.7490    3.7880 ho        1 MOL      0.414982
    189 H86        -3.5750   -3.8020    2.7110 ho        1 MOL      0.414982
    190 O30        -2.1460   -1.2930    5.5020 oh        1 MOL     -0.867031
    191 H87        -1.3890   -1.8450    5.6700 ho        1 MOL      0.414982
    192 H88        -2.3540   -0.9090    6.3510 ho        1 MOL      0.414982
    193 O31        -5.3050   -1.3820    5.7430 oh        1 MOL     -0.867031
    194 H89        -4.9250   -1.5490    6.6060 ho        1 MOL      0.414982
    195 H90        -6.2510   -1.4860    5.8700 ho        1 MOL      0.414982
@<TRIPOS>BOND
     1    1    2 1   
     2    1    4 1   
     3    1    5 1   
     4    1    6 1   
     5    2    3 2   
     6    2    7 1   
     7    7    8 1   
     8    7   15 1   
     9    8    9 1   
    10    8   11 1   
    11    8   16 1   
    12    9   10 2   
    13    9   19 1   
    14   11   12 1   
    15   11   17 1   
    16   11   18 1   
    17   12   13 1   
    18   12   14 1   
    19   19   20 1   
    20   19   27 1   
    21   20   21 1   
    22   20   23 1   
    23   20   28 1   
    24   21   22 2   
    25   21   38 1   
    26   23   24 1   
    27   23   25 1   
    28   23   29 1   
    29   24   26 1   
    30   24   30 1   
    31   24   31 1   
    32   25   32 1   
    33   25   33 1   
    34   25   34 1   
    35   26   35 1   
    36   26   36 1   
    37   26   37 1   
    38   38   39 1   
    39   38   46 1   
    40   39   40 1   
    41   39   42 1   
    42   39   47 1   
    43   40   41 2   
    44   40   50 1   
    45   42   43 1   
    46   42   48 1   
    47   42   49 1   
    48   43   44 1   
    49   43   45 1   
    50   50   51 1   
    51   50   54 1   
    52   51   52 1   
    53   51   55 1   
    54   51   56 1   
    55   52   53 2   
    56   52   57 1   
    57   57   58 1   
    58   57   65 1   
    59   58   59 1   
    60   58   61 1   
    61   58   66 1   
    62   59   60 2   
    63   59   69 1   
    64   61   62 1   
    65   61   67 1   
    66   61   68 1   
    67   62   63 1   
    68   62   64 1   
    69   69   70 1   
    70   69   73 1   
    71   70   71 1   
    72   70   74 1   
    73   70   75 1   
    74   71   72 2   
    75   71   76 1   
    76   76   77 1   
    77   76   85 1   
    78   77   78 1   
    79   77   80 1   
    80   77   86 1   
    81   78   79 2   
    82   78   93 1   
    83   80   81 1   
    84   80   87 1   
    85   80   88 1   
    86   81   82 1   
    87   81   89 1   
    88   81   90 1   
    89   82   83 1   
    90   82   84 2   
    91   83   91 1   
    92   83   92 1   
    93   93   94 1   
    94   93  100 1   
    95   94   95 1   
    96   94   97 1   
    97   94  101 1   
    98   95   96 2   
    99   95  109 1   
   100   97   98 1   
   101   97   99 1   
   102   97  102 1   
   103   98  103 1   
   104   98  104 1   
   105   98  105 1   
   106   99  106 1   
   107   99  107 1   
   108   99  108 1   
   109  109  110 1   
   110  109  117 1   
   111  110  111 1   
   112  110  113 1   
   113  110  118 1   
   114  111  112 2   
   115  111  123 1   
   116  113  114 1   
   117  113  119 1   
   118  113  120 1   
   119  114  115 1   
   120  114  116 2   
   121  115  121 1   
   122  115  122 1   
   123  123  124 1   
   124  123  135 1   
   125  124  125 1   
   126  124  127 1   
   127  124  136 1   
   128  125  126 2   
   129  125  144 1   
   130  127  128 1   
   131  127  137 1   
   132  127  138 1   
   133  128  129 ar  
   134  128  130 ar  
   135  129  131 ar  
   136  129  139 1   
   137  130  132 ar  
   138  130  140 1   
   139  131  133 ar  
   140  131  141 1   
   141  132  133 ar  
   142  132  142 1   
   143  133  134 1   
   144  134  143 1   
   145  144  145 1   
   146  144  153 1   
   147  145  146 1   
   148  145  148 1   
   149  145  154 1   
   150  146  147 2   
   151  146  159 1   
   152  148  149 1   
   153  148  155 1   
   154  148  156 1   
   155  149  150 1   
   156  149  157 1   
   157  149  158 1   
   158  150  151 1   
   159  150  152 1   
   160  159  160 1   
   161  159  168 1   
   162  160  161 1   
   163  160  163 1   
   164  160  169 1   
   165  161  162 2   
   166  161  174 1   
   167  163  164 1   
   168  163  170 1   
   169  163  171 1   
   170  164  165 1   
   171  164  172 1   
   172  164  173 1   
   173  165  166 1   
   174  165  167 1   
   175  174  175 1   
   176  174  179 1   
   177  175  176 1   
   178  175  177 1   
   179  175  178 1   
   180  181  182 1   
   181  181  183 1   
   182  184  185 1   
   183  184  186 1   
   184  187  188 1   
   185  187  189 1   
   186  190  191 1   
   187  190  192 1   
   188  193  194 1   
   189  193  195 1   
@<TRIPOS>SUBSTRUCTURE
     1 MOL         1 TEMP              0 ****  ****    0 ROOT
