@<TRIPOS>MOLECULE
MOL
  192   187     1     0     0
SMALL
resp


@<TRIPOS>ATOM
      1 C1         -4.6890    6.7090    2.1200 c3        1 MOL     -0.277765
      2 C2         -4.5990    5.2160    1.8350 c         1 MOL      0.634238
      3 O1         -4.5510    4.3990    2.7480 o         1 MOL     -0.573093
      4 H1         -4.5680    6.8820    3.1900 hc        1 MOL      0.073341
      5 H2         -3.9010    7.2310    1.5780 hc        1 MOL      0.073341
      6 H3         -5.6610    7.0830    1.7990 hc        1 MOL      0.073341
      7 N1         -4.3620    4.7210    0.6050 n         1 MOL     -0.500826
      8 C3         -4.3070    3.3120    0.1840 c3        1 MOL      0.236071
      9 C4         -2.8970    2.7930   -0.1710 c         1 MOL      0.621741
     10 O2         -2.6990    1.6250    0.0170 o         1 MOL     -0.558591
     11 C5         -5.2350    3.0420   -0.9870 c3        1 MOL     -0.144276
     12 C6         -5.1620    3.9820   -2.2190 c         1 MOL      0.635081
     13 O3         -4.6590    5.1190   -2.0970 o         1 MOL     -0.695896
     14 O4         -5.7640    3.6340   -3.2450 o         1 MOL     -0.695896
     15 H4         -4.2660    5.3270   -0.2020 hn        1 MOL      0.249965
     16 H5         -4.6410    2.6950    1.0170 h1        1 MOL      0.014034
     17 H6         -6.2300    3.0330   -0.5420 hc        1 MOL      0.010677
     18 H7         -5.0150    2.0520   -1.3720 hc        1 MOL      0.010677
     19 N2         -1.9360    3.6330   -0.4570 n         1 MOL     -0.658360
     20 C7         -0.5150    3.2520   -0.3890 c3        1 MOL      0.021790
     21 C8          0.0850    3.1260    1.0370 c         1 MOL      0.650216
     22 O5         -0.1250    3.9530    1.9230 o         1 MOL     -0.561715
     23 C9          0.2950    4.3810   -1.1460 c3        1 MOL     -0.361681
     24 C10         0.0930    4.4530   -2.6810 c3        1 MOL      0.214281
     25 C11         0.8060    5.6820   -3.2290 c3        1 MOL      0.001827
     26 C12         0.9290    5.6990   -4.8400 c3        1 MOL     -0.065797
     27 N3         -0.3360    6.0460   -5.3790 n4        1 MOL     -0.410245
     28 H8         -2.1040    4.6360   -0.4270 hn        1 MOL      0.338019
     29 H9         -0.4350    2.3070   -0.9260 h1        1 MOL      0.204163
     30 H10         1.3730    4.2580   -1.0310 hc        1 MOL      0.122661
     31 H11        -0.1110    5.2870   -0.6970 hc        1 MOL      0.122661
     32 H12        -0.9800    4.5790   -2.8090 hc        1 MOL     -0.038385
     33 H13         0.4750    3.5660   -3.1980 hc        1 MOL     -0.038385
     34 H14         1.7930    5.7450   -2.7560 hc        1 MOL      0.032661
     35 H15         0.2390    6.5430   -2.8890 hc        1 MOL      0.032661
     36 H16         1.3030    4.7850   -5.2840 hx        1 MOL      0.109611
     37 H17         1.5680    6.5100   -5.1960 hx        1 MOL      0.109611
     38 H18        -0.2780    5.7070   -6.3290 hn        1 MOL      0.323388
     39 H19        -1.0510    5.6030   -4.8290 hn        1 MOL      0.323388
     40 H20        -0.4910    7.0360   -5.3110 hn        1 MOL      0.323388
     41 N4          0.9580    2.1520    1.3430 n         1 MOL     -0.589613
     42 C13         1.3670    1.0120    0.5690 c3        1 MOL      0.072978
     43 C14         2.0030    1.2140   -0.8700 c         1 MOL      0.284066
     44 O6          1.4240    0.8160   -1.8810 o         1 MOL     -0.501015
     45 C15         0.3400   -0.1340    0.6190 c3        1 MOL     -0.366688
     46 C16         0.1830   -0.6160    2.1000 c         1 MOL      0.908467
     47 O7         -0.9530   -1.1100    2.4950 o         1 MOL     -0.838566
     48 O8          1.0890   -0.4500    2.9690 o         1 MOL     -0.838566
     49 H21         1.4300    2.2980    2.2300 hn        1 MOL      0.326709
     50 H22         2.2510    0.5850    1.0460 h1        1 MOL      0.137561
     51 H23         0.7500   -0.9580    0.0510 hc        1 MOL      0.182580
     52 H24        -0.5800    0.2800    0.1970 hc        1 MOL      0.182580
     53 N5          3.1330    1.9470   -0.9690 n         1 MOL     -0.195738
     54 C17         4.0890    2.4630    0.0690 c3        1 MOL     -0.112045
     55 C18         5.2530    3.2300   -0.5120 c         1 MOL      0.625331
     56 O9          5.3150    3.4760   -1.7070 o         1 MOL     -0.555874
     57 H25         3.4570    2.1630   -1.9000 hn        1 MOL      0.228435
     58 H26         4.5390    1.6300    0.5950 h1        1 MOL      0.070876
     59 H27         3.6050    3.0170    0.8650 h1        1 MOL      0.070876
     60 N6          6.2070    3.7930    0.2280 n         1 MOL     -0.512763
     61 C19         6.5840    3.3370    1.5670 c3        1 MOL      0.103924
     62 C20         7.1560    1.9350    1.6310 c         1 MOL      0.493130
     63 O10         7.7050    1.3930    0.6810 o         1 MOL     -0.448527
     64 C21         7.6130    4.2650    2.2430 c3        1 MOL     -0.198994
     65 C22         8.8230    4.6440    1.3700 c         1 MOL      0.715682
     66 O11         8.6710    5.0500    0.2190 o         1 MOL     -0.649398
     67 O12         9.9840    4.6940    1.8310 o         1 MOL     -0.649398
     68 H28         6.6840    4.5670   -0.2040 hn        1 MOL      0.308818
     69 H29         5.6520    3.3710    2.1310 h1        1 MOL     -0.014033
     70 H30         8.0000    3.7830    3.1370 hc        1 MOL      0.029760
     71 H31         7.1410    5.1720    2.6290 hc        1 MOL      0.029760
     72 N7          7.0790    1.2800    2.8170 n         1 MOL     -0.230345
     73 C23         7.6670   -0.0040    2.9880 c3        1 MOL     -0.225601
     74 C24         7.0540   -1.2030    2.3480 c         1 MOL      0.529027
     75 O13         7.6370   -2.2710    2.3310 o         1 MOL     -0.551336
     76 H32         6.6100    1.7600    3.5640 hn        1 MOL      0.223129
     77 H33         7.6260   -0.2170    4.0620 h1        1 MOL      0.114983
     78 H34         8.7280    0.0500    2.7260 h1        1 MOL      0.114983
     79 N8          5.8150   -1.0940    1.8990 n         1 MOL     -0.238531
     80 C25         5.1530   -2.1820    1.1270 c3        1 MOL     -0.060294
     81 C26         5.0800   -1.7770   -0.3230 c         1 MOL      0.602015
     82 O14         4.9990   -0.5220   -0.5540 o         1 MOL     -0.585625
     83 C27         3.7350   -2.4320    1.6490 c3        1 MOL      0.589917
     84 C28         3.6250   -2.6210    3.1220 c3        1 MOL     -0.345163
     85 O15         3.3090   -3.6400    1.0250 oh        1 MOL     -0.705005
     86 H35         5.4030   -0.1720    1.8720 hn        1 MOL      0.102122
     87 H36         5.6640   -3.1410    1.0540 h1        1 MOL      0.013506
     88 H37         3.0990   -1.5970    1.3560 h1        1 MOL     -0.031440
     89 H38         3.6740   -4.3610    1.5390 ho        1 MOL      0.400026
     90 H39         4.2650   -3.4450    3.4340 hc        1 MOL      0.052012
     91 H40         3.9180   -1.7000    3.6200 hc        1 MOL      0.052012
     92 H41         2.5710   -2.8700    3.3060 hc        1 MOL      0.052012
     93 N9          4.9900   -2.7260   -1.2400 n         1 MOL     -0.253577
     94 C29         4.8630   -2.6960   -2.7220 c3        1 MOL     -0.056807
     95 C30         3.5610   -3.3500   -3.1390 c         1 MOL      0.562072
     96 O16         3.4950   -3.8680   -4.2260 o         1 MOL     -0.569564
     97 C31         6.0550   -3.2240   -3.5080 c3        1 MOL      0.229286
     98 C32         6.3080   -4.6890   -3.3330 c3        1 MOL      0.085375
     99 C33         7.3630   -2.5280   -3.2000 c3        1 MOL     -0.273056
    100 C34         6.7190   -5.2430   -1.9600 c3        1 MOL     -0.134012
    101 H42         5.0350   -3.6620   -0.8570 hn        1 MOL      0.216006
    102 H43         4.7760   -1.6950   -3.1350 h1        1 MOL      0.089508
    103 H44         5.9300   -3.0380   -4.5800 hc        1 MOL     -0.015900
    104 H45         7.0860   -4.9820   -4.0360 hc        1 MOL     -0.008426
    105 H46         5.4390   -5.2450   -3.6910 hc        1 MOL     -0.008426
    106 H47         8.1950   -3.0450   -3.6660 hc        1 MOL      0.064445
    107 H48         7.2930   -1.5350   -3.6640 hc        1 MOL      0.064445
    108 H49         7.4450   -2.3210   -2.1300 hc        1 MOL      0.064445
    109 H50         7.3320   -4.5340   -1.4110 hc        1 MOL      0.021722
    110 H51         5.7790   -5.3880   -1.4270 hc        1 MOL      0.021722
    111 H52         7.1040   -6.2430   -2.1910 hc        1 MOL      0.021722
    112 N10         2.5380   -3.4490   -2.2490 n         1 MOL     -0.462447
    113 C35         1.1940   -3.9920   -2.5750 c3        1 MOL      0.017917
    114 C36         0.0970   -3.1610   -1.8580 c         1 MOL      0.652715
    115 O17         0.1370   -3.0420   -0.6430 o         1 MOL     -0.504617
    116 C37         1.0640   -5.4610   -2.0680 c3        1 MOL      0.301437
    117 C38         2.2620   -6.3440   -2.3260 c3        1 MOL     -0.288045
    118 O18        -0.0980   -6.0340   -2.6370 oh        1 MOL     -0.658291
    119 H53         2.6470   -2.9470   -1.3670 hn        1 MOL      0.185583
    120 H54         1.0790   -3.9280   -3.6580 h1        1 MOL      0.117379
    121 H55         0.8100   -5.3790   -1.0160 h1        1 MOL      0.022675
    122 H56        -0.2010   -6.8890   -2.2230 ho        1 MOL      0.419526
    123 H57         2.6690   -6.3370   -3.3340 hc        1 MOL      0.073186
    124 H58         3.1070   -5.9080   -1.7960 hc        1 MOL      0.073186
    125 H59         2.1140   -7.3660   -1.9650 hc        1 MOL      0.073186
    126 N11        -0.8160   -2.5400   -2.6430 n         1 MOL     -0.639904
    127 C39        -1.9430   -1.7310   -2.1670 c3        1 MOL      0.196024
    128 C40        -3.1290   -2.6690   -1.8240 c         1 MOL      0.586132
    129 O19        -3.2180   -3.8370   -2.2580 o         1 MOL     -0.546274
    130 C41        -2.3390   -0.7920   -3.3090 c3        1 MOL      0.296050
    131 C42        -1.2250    0.1420   -3.7630 c3        1 MOL     -0.227236
    132 O20        -3.5080   -0.0530   -3.2600 oh        1 MOL     -0.554434
    133 H60        -0.7840   -2.8070   -3.6090 hn        1 MOL      0.304921
    134 H61        -1.6560   -1.1810   -1.2710 h1        1 MOL     -0.024305
    135 H62        -2.5990   -1.4390   -4.1510 h1        1 MOL     -0.050770
    136 H63        -3.5040    0.7860   -3.7270 ho        1 MOL      0.352505
    137 H64        -0.4430   -0.4570   -4.2360 hc        1 MOL      0.063353
    138 H65        -1.5740    0.7500   -4.5950 hc        1 MOL      0.063353
    139 H66        -0.7640    0.7480   -2.9790 hc        1 MOL      0.063353
    140 N12        -4.1380   -2.1820   -1.1390 n         1 MOL     -0.446094
    141 C43        -5.4190   -2.8650   -0.9810 c3        1 MOL      0.024394
    142 C44        -6.2320   -2.5740    0.2600 c         1 MOL      0.467726
    143 O21        -7.3710   -3.0560    0.4150 o         1 MOL     -0.549270
    144 C45        -6.2410   -2.6950   -2.2840 c3        1 MOL     -0.328543
    145 C46        -6.9270   -1.3230   -2.4480 c3        1 MOL      0.024895
    146 C47        -7.4200   -0.9070   -3.9050 c3        1 MOL     -0.331832
    147 C48        -6.2360   -0.7070   -4.8900 c3        1 MOL      0.078648
    148 N13        -6.6510   -0.0300   -6.1290 n4        1 MOL     -0.340565
    149 H67        -4.1260   -1.2540   -0.7270 hn        1 MOL      0.280570
    150 H68        -5.1920   -3.9190   -0.8740 h1        1 MOL      0.128900
    151 H69        -7.0600   -3.4110   -2.1760 hc        1 MOL      0.129876
    152 H70        -5.7210   -2.7970   -3.2350 hc        1 MOL      0.129876
    153 H71        -6.3490   -0.5330   -1.9600 hc        1 MOL      0.064321
    154 H72        -7.8390   -1.3430   -1.8560 hc        1 MOL      0.064321
    155 H73        -8.0240    0.0010   -3.8870 hc        1 MOL      0.123668
    156 H74        -8.0890   -1.7120   -4.2240 hc        1 MOL      0.123668
    157 H75        -5.7260   -1.6480   -5.0710 hx        1 MOL      0.092233
    158 H76        -5.5030   -0.0290   -4.4480 hx        1 MOL      0.092233
    159 H77        -7.3330   -0.5970   -6.6170 hn        1 MOL      0.306593
    160 H78        -7.1630    0.8270   -5.9730 hn        1 MOL      0.306593
    161 H79        -5.9520    0.1320   -6.8490 hn        1 MOL      0.306593
    162 N14        -5.7370   -1.7500    1.1840 n         1 MOL     -0.245361
    163 C49        -6.4640   -1.4470    2.4510 c3        1 MOL     -0.321276
    164 C50        -7.1480   -0.0830    2.3540 c         1 MOL      0.553960
    165 O22        -6.5220    0.8570    1.9790 o         1 MOL     -0.462047
    166 C51        -5.4170   -1.4800    3.5030 c3        1 MOL     -0.205896
    167 C52        -4.8880   -2.9350    3.5950 c3        1 MOL      0.354547
    168 C53        -3.9520   -3.1890    4.6980 c         1 MOL      0.438476
    169 O23        -4.4600   -3.8220    5.6940 o         1 MOL     -0.687533
    170 O24        -2.8170   -2.6670    4.7130 o         1 MOL     -0.687533
    171 H80        -4.8340   -1.3410    1.0070 hn        1 MOL      0.250869
    172 H81        -7.2290   -2.1700    2.7310 h1        1 MOL      0.168886
    173 H82        -5.9810   -1.2560    4.4020 hc        1 MOL      0.086873
    174 H83        -4.6090   -0.7650    3.2930 hc        1 MOL      0.086873
    175 H84        -4.4600   -3.3610    2.6780 hc        1 MOL     -0.051912
    176 H85        -5.7680   -3.5420    3.7880 hc        1 MOL     -0.051912
    177 N15        -8.4560   -0.0650    2.5660 n         1 MOL     -0.287145
    178 C54        -9.4060    1.0330    2.3890 c3        1 MOL     -0.227578
    179 H86        -9.2090    1.8070    3.1320 h1        1 MOL      0.112580
    180 H87        -9.2960    1.4530    1.3890 h1        1 MOL      0.112580
    181 H88       -10.4220    0.6590    2.5170 h1        1 MOL      0.112580
    182 H89        -8.8770   -0.9490    2.8270 hn        1 MOL      0.257036
    183 Ca1        -0.5400   -1.3470    4.9630 Ca        1 MOL      1.794383
    184 O25        -1.8120    0.8470    4.2040 oh        1 MOL     -0.914126
    185 H90        -2.4050    0.7470    3.4510 ho        1 MOL      0.451724
    186 H91        -1.4500    1.7330    4.1020 ho        1 MOL      0.451724
    187 O26        -2.2630   -0.6650    6.8490 oh        1 MOL     -0.914126
    188 H92        -2.6670    0.1400    7.1620 ho        1 MOL      0.451724
    189 H93        -2.9570   -1.3280    6.9370 ho        1 MOL      0.451724
    190 O27        -0.3980   -3.6470    3.8170 oh        1 MOL     -0.914126
    191 H94        -0.8260   -4.3410    4.3310 ho        1 MOL      0.451724
    192 H95        -0.1170   -4.0860    3.0100 ho        1 MOL      0.451724
@<TRIPOS>BOND
     1    1    2 1   
     2    1    4 1   
     3    1    5 1   
     4    1    6 1   
     5    2    3 2   
     6    2    7 1   
     7    7    8 1   
     8    7   15 1   
     9    8    9 1   
    10    8   11 1   
    11    8   16 1   
    12    9   10 2   
    13    9   19 1   
    14   11   12 1   
    15   11   17 1   
    16   11   18 1   
    17   12   13 1   
    18   12   14 1   
    19   19   20 1   
    20   19   28 1   
    21   20   21 1   
    22   20   23 1   
    23   20   29 1   
    24   21   22 2   
    25   21   41 1   
    26   23   24 1   
    27   23   30 1   
    28   23   31 1   
    29   24   25 1   
    30   24   32 1   
    31   24   33 1   
    32   25   26 1   
    33   25   34 1   
    34   25   35 1   
    35   26   27 1   
    36   26   36 1   
    37   26   37 1   
    38   27   38 1   
    39   27   39 1   
    40   27   40 1   
    41   41   42 1   
    42   41   49 1   
    43   42   43 1   
    44   42   45 1   
    45   42   50 1   
    46   43   44 2   
    47   43   53 1   
    48   45   46 1   
    49   45   51 1   
    50   45   52 1   
    51   46   47 1   
    52   46   48 1   
    53   53   54 1   
    54   53   57 1   
    55   54   55 1   
    56   54   58 1   
    57   54   59 1   
    58   55   56 2   
    59   55   60 1   
    60   60   61 1   
    61   60   68 1   
    62   61   62 1   
    63   61   64 1   
    64   61   69 1   
    65   62   63 2   
    66   62   72 1   
    67   64   65 1   
    68   64   70 1   
    69   64   71 1   
    70   65   66 1   
    71   65   67 1   
    72   72   73 1   
    73   72   76 1   
    74   73   74 1   
    75   73   77 1   
    76   73   78 1   
    77   74   75 2   
    78   74   79 1   
    79   79   80 1   
    80   79   86 1   
    81   80   81 1   
    82   80   83 1   
    83   80   87 1   
    84   81   82 2   
    85   81   93 1   
    86   83   84 1   
    87   83   85 1   
    88   83   88 1   
    89   84   90 1   
    90   84   91 1   
    91   84   92 1   
    92   85   89 1   
    93   93   94 1   
    94   93  101 1   
    95   94   95 1   
    96   94   97 1   
    97   94  102 1   
    98   95   96 2   
    99   95  112 1   
   100   97   98 1   
   101   97   99 1   
   102   97  103 1   
   103   98  100 1   
   104   98  104 1   
   105   98  105 1   
   106   99  106 1   
   107   99  107 1   
   108   99  108 1   
   109  100  109 1   
   110  100  110 1   
   111  100  111 1   
   112  112  113 1   
   113  112  119 1   
   114  113  114 1   
   115  113  116 1   
   116  113  120 1   
   117  114  115 2   
   118  114  126 1   
   119  116  117 1   
   120  116  118 1   
   121  116  121 1   
   122  117  123 1   
   123  117  124 1   
   124  117  125 1   
   125  118  122 1   
   126  126  127 1   
   127  126  133 1   
   128  127  128 1   
   129  127  130 1   
   130  127  134 1   
   131  128  129 2   
   132  128  140 1   
   133  130  131 1   
   134  130  132 1   
   135  130  135 1   
   136  131  137 1   
   137  131  138 1   
   138  131  139 1   
   139  132  136 1   
   140  140  141 1   
   141  140  149 1   
   142  141  142 1   
   143  141  144 1   
   144  141  150 1   
   145  142  143 2   
   146  142  162 1   
   147  144  145 1   
   148  144  151 1   
   149  144  152 1   
   150  145  146 1   
   151  145  153 1   
   152  145  154 1   
   153  146  147 1   
   154  146  155 1   
   155  146  156 1   
   156  147  148 1   
   157  147  157 1   
   158  147  158 1   
   159  148  159 1   
   160  148  160 1   
   161  148  161 1   
   162  162  163 1   
   163  162  171 1   
   164  163  164 1   
   165  163  166 1   
   166  163  172 1   
   167  164  165 2   
   168  164  177 1   
   169  166  167 1   
   170  166  173 1   
   171  166  174 1   
   172  167  168 1   
   173  167  175 1   
   174  167  176 1   
   175  168  169 1   
   176  168  170 1   
   177  177  178 1   
   178  177  182 1   
   179  178  179 1   
   180  178  180 1   
   181  178  181 1   
   182  184  185 1   
   183  184  186 1   
   184  187  188 1   
   185  187  189 1   
   186  190  191 1   
   187  190  192 1   
@<TRIPOS>SUBSTRUCTURE
     1 MOL         1 TEMP              0 ****  ****    0 ROOT
