@<TRIPOS>MOLECULE
MOL
  192   187     1     0     0
SMALL
resp


@<TRIPOS>ATOM
      1 C1         -0.6400    8.0750    2.5360 c3        1 MOL     -0.352482
      2 C2         -0.6220    6.7170    1.7990 c         1 MOL      0.650320
      3 O1         -1.0860    5.6940    2.3370 o         1 MOL     -0.574172
      4 H1         -0.2590    7.9430    3.5490 hc        1 MOL      0.088621
      5 H2         -0.0100    8.7860    2.0020 hc        1 MOL      0.088621
      6 H3         -1.6620    8.4520    2.5790 hc        1 MOL      0.088621
      7 N1          0.0100    6.6660    0.6210 n         1 MOL     -0.415888
      8 C3         -0.2610    5.5290   -0.3210 c3        1 MOL     -0.061276
      9 C4          0.8280    4.4510   -0.1640 c         1 MOL      0.448005
     10 O2          0.8800    3.5160   -0.9250 o         1 MOL     -0.475642
     11 C5         -0.1780    6.0160   -1.7460 c3        1 MOL     -0.110627
     12 C6          1.0870    6.8080   -2.2260 c         1 MOL      0.571559
     13 O3          1.4470    7.8540   -1.6310 o         1 MOL     -0.643574
     14 O4          1.7460    6.3260   -3.2480 o         1 MOL     -0.643574
     15 H4          0.5500    7.4150    0.2080 hn        1 MOL      0.234929
     16 H5         -1.2370    5.0500   -0.2370 h1        1 MOL      0.120938
     17 H6         -1.1140    6.5260   -1.9600 hc        1 MOL      0.056457
     18 H7         -0.1720    5.1170   -2.3600 hc        1 MOL      0.056457
     19 N2          1.8400    4.5900    0.7300 n         1 MOL     -0.332605
     20 C7          3.1070    3.9090    0.5300 c3        1 MOL      0.110375
     21 C8          3.4740    2.8440    1.6640 c         1 MOL      0.484420
     22 O5          3.3610    3.1830    2.8180 o         1 MOL     -0.546784
     23 C9          4.1780    4.9770    0.5460 c3        1 MOL     -0.159336
     24 C10         4.1380    5.9110   -0.6540 c3        1 MOL      0.096306
     25 C11         5.4010    6.7890   -0.9040 c3        1 MOL     -0.165553
     26 C12         5.3590    7.5490   -2.1880 c3        1 MOL     -0.180388
     27 N3          3.9630    8.0880   -2.4470 n4        1 MOL     -0.086617
     28 H8          1.6190    5.1610    1.5370 hn        1 MOL      0.252767
     29 H9          3.0830    3.3940   -0.4380 h1        1 MOL      0.121899
     30 H10         5.1230    4.4360    0.4740 hc        1 MOL      0.016179
     31 H11         4.0200    5.6340    1.4010 hc        1 MOL      0.016179
     32 H12         3.2660    6.5290   -0.4620 hc        1 MOL      0.044508
     33 H13         3.8450    5.3670   -1.5470 hc        1 MOL      0.044508
     34 H14         6.3070    6.1840   -0.9060 hc        1 MOL      0.080588
     35 H15         5.6000    7.3710   -0.0040 hc        1 MOL      0.080588
     36 H16         5.5460    6.8890   -3.0280 hx        1 MOL      0.127332
     37 H17         6.0510    8.3940   -2.0900 hx        1 MOL      0.127332
     38 H18         4.0910    8.7120   -3.2340 hn        1 MOL      0.232046
     39 H19         3.2910    7.3870   -2.7350 hn        1 MOL      0.232046
     40 H20         3.4620    8.5890   -1.7330 hn        1 MOL      0.232046
     41 N4          4.0250    1.6720    1.3560 n         1 MOL     -0.433223
     42 C13         4.2020    1.0120    0.0670 c3        1 MOL      0.262335
     43 C14         5.0670    1.7390   -0.9840 c         1 MOL      0.247979
     44 O6          4.5400    2.0200   -2.1210 o         1 MOL     -0.509452
     45 C15         2.9270    0.4140   -0.5490 c3        1 MOL     -0.153443
     46 C16         2.1800   -0.4790    0.4890 c         1 MOL      0.615793
     47 O7          2.7180   -1.3820    1.1150 o         1 MOL     -0.708545
     48 O8          0.9560   -0.2070    0.6160 o         1 MOL     -0.708545
     49 H21         4.2940    1.1490    2.1780 hn        1 MOL      0.280558
     50 H22         4.8190    0.1320    0.2400 h1        1 MOL      0.052086
     51 H23         3.1380   -0.2820   -1.3570 hc        1 MOL      0.084376
     52 H24         2.3850    1.3070   -0.8610 hc        1 MOL      0.084376
     53 N5          6.3720    1.9430   -0.7880 n         1 MOL     -0.245337
     54 C17         7.3370    1.4590    0.1850 c3        1 MOL      0.047367
     55 C18         8.2870    0.3430   -0.3140 c         1 MOL      0.551804
     56 O9          8.6320    0.3420   -1.4760 o         1 MOL     -0.553250
     57 H25         6.9090    2.3100   -1.5650 hn        1 MOL      0.256877
     58 H26         6.8860    0.9470    1.0370 h1        1 MOL     -0.013494
     59 H27         7.9690    2.3050    0.4360 h1        1 MOL     -0.013494
     60 N6          8.6250   -0.6680    0.5130 n         1 MOL     -0.439876
     61 C19         8.3390   -0.8670    1.9650 c3        1 MOL     -0.046484
     62 C20         7.0920   -1.6980    2.1810 c         1 MOL      0.641740
     63 O10         6.7690   -1.8870    3.3120 o         1 MOL     -0.556471
     64 C21         9.5620   -1.4840    2.6880 c3        1 MOL     -0.186203
     65 C22         9.9820   -2.8910    2.2190 c         1 MOL      0.700243
     66 O11        10.9720   -3.5080    2.6780 o         1 MOL     -0.631316
     67 O12         9.3640   -3.3910    1.2130 o         1 MOL     -0.631316
     68 H28         9.0270   -1.4820    0.0750 hn        1 MOL      0.286544
     69 H29         8.0850    0.0760    2.4490 h1        1 MOL      0.103288
     70 H30         9.2200   -1.4780    3.7180 hc        1 MOL      0.046127
     71 H31        10.3720   -0.7610    2.7150 hc        1 MOL      0.046127
     72 N7          6.4360   -2.1440    1.0810 n         1 MOL     -0.375834
     73 C23         5.2220   -2.9630    1.1610 c3        1 MOL     -0.141976
     74 C24         4.6030   -3.1730   -0.2310 c         1 MOL      0.609437
     75 O13         4.9650   -2.4930   -1.2180 o         1 MOL     -0.471775
     76 H32         6.7680   -1.8970    0.1590 hn        1 MOL      0.254014
     77 H33         4.4870   -2.4780    1.8030 h1        1 MOL      0.053319
     78 H34         5.4410   -3.9120    1.6470 h1        1 MOL      0.053319
     79 N8          3.6320   -4.1230   -0.2620 n         1 MOL     -0.584369
     80 C25         2.9130   -4.4160   -1.4530 c3        1 MOL     -0.048918
     81 C26         1.5940   -3.6240   -1.5690 c         1 MOL      0.688589
     82 O14         0.8740   -3.3840   -0.5650 o         1 MOL     -0.627818
     83 C27         2.6460   -5.8830   -1.6460 c3        1 MOL      0.506106
     84 C28         1.8320   -6.5250   -0.5910 c3        1 MOL     -0.228814
     85 O15         3.9420   -6.5250   -1.8900 oh        1 MOL     -0.629425
     86 H35         3.4040   -4.4860    0.6490 hn        1 MOL      0.270594
     87 H36         3.5710   -4.0590   -2.2510 h1        1 MOL      0.082743
     88 H37         2.0420   -6.0210   -2.5420 h1        1 MOL      0.002189
     89 H38         4.3380   -6.4080   -1.0310 ho        1 MOL      0.386935
     90 H39         2.3320   -7.4490   -0.2890 hc        1 MOL      0.034344
     91 H40         1.6270   -5.8900    0.2650 hc        1 MOL      0.034344
     92 H41         0.8720   -6.8510   -1.0120 hc        1 MOL      0.034344
     93 N9          1.2290   -3.2480   -2.8030 n         1 MOL     -0.596049
     94 C29        -0.0750   -2.5740   -3.0060 c3        1 MOL      0.080018
     95 C30        -1.1840   -3.5540   -3.2160 c         1 MOL      0.368894
     96 O16        -1.0710   -4.4600   -4.0560 o         1 MOL     -0.523563
     97 C31         0.0180   -1.6360   -4.2440 c3        1 MOL      0.203106
     98 C32         1.1790   -0.5670   -4.1520 c3        1 MOL     -0.090732
     99 C33        -1.3380   -0.8300   -4.4570 c3        1 MOL     -0.361736
    100 C34         1.3080    0.4800   -5.2840 c3        1 MOL     -0.116671
    101 H42         1.7800   -3.5590   -3.5870 hn        1 MOL      0.318404
    102 H43        -0.3260   -1.9720   -2.1410 h1        1 MOL      0.052044
    103 H44         0.2370   -2.2880   -5.0990 hc        1 MOL      0.002005
    104 H45         2.1050   -1.1360   -4.1380 hc        1 MOL      0.043915
    105 H46         1.2980   -0.0270   -3.2180 hc        1 MOL      0.043915
    106 H47        -1.2840   -0.4150   -5.4650 hc        1 MOL      0.090903
    107 H48        -2.1370   -1.5570   -4.5950 hc        1 MOL      0.090903
    108 H49        -1.3780   -0.1210   -3.6290 hc        1 MOL      0.090903
    109 H50         1.3460   -0.0390   -6.2410 hc        1 MOL      0.038230
    110 H51         0.4400    1.1280   -5.3740 hc        1 MOL      0.038230
    111 H52         2.1890    1.1160   -5.1900 hc        1 MOL      0.038230
    112 N10        -2.3360   -3.2770   -2.6390 n         1 MOL     -0.040796
    113 C35        -3.6210   -3.9840   -2.7770 c3        1 MOL     -0.160549
    114 C36        -4.8070   -2.9600   -2.9640 c         1 MOL      0.455652
    115 O17        -5.8540   -3.3370   -3.4650 o         1 MOL     -0.507382
    116 C37        -3.8930   -4.9050   -1.5580 c3        1 MOL      0.339028
    117 C38        -3.6600   -4.3070   -0.1930 c3        1 MOL     -0.234636
    118 O18        -2.9580   -5.9550   -1.6180 oh        1 MOL     -0.589313
    119 H53        -2.1960   -2.5590   -1.9420 hn        1 MOL      0.134939
    120 H54        -3.5630   -4.5820   -3.6850 h1        1 MOL      0.157257
    121 H55        -4.9180   -5.2590   -1.5950 h1        1 MOL      0.008058
    122 H56        -2.9500   -6.2580   -0.7030 ho        1 MOL      0.352704
    123 H57        -3.8590   -5.0520    0.5730 hc        1 MOL      0.055441
    124 H58        -2.6300   -3.9620   -0.1660 hc        1 MOL      0.055441
    125 H59        -4.3090   -3.4340   -0.0770 hc        1 MOL      0.055441
    126 N11        -4.5440   -1.6700   -2.7340 n         1 MOL     -0.355710
    127 C39        -5.4590   -0.4520   -2.6080 c3        1 MOL     -0.018162
    128 C40        -6.5100   -0.5770   -1.5340 c         1 MOL      0.517150
    129 O19        -7.1490   -1.6020   -1.4020 o         1 MOL     -0.491379
    130 C41        -6.0770   -0.1450   -4.0220 c3        1 MOL      0.444364
    131 C42        -4.9220    0.1080   -5.0380 c3        1 MOL     -0.353906
    132 O20        -6.8070    0.9800   -4.0340 oh        1 MOL     -0.660046
    133 H60        -3.6360   -1.5020   -2.3230 hn        1 MOL      0.245694
    134 H61        -4.8010    0.3570   -2.2840 h1        1 MOL      0.072251
    135 H62        -6.7470   -0.9260   -4.3760 h1        1 MOL      0.001885
    136 H63        -7.2860    0.9230   -4.8620 ho        1 MOL      0.404873
    137 H64        -5.3510    0.5110   -5.9660 hc        1 MOL      0.080457
    138 H65        -4.2940    0.8860   -4.6200 hc        1 MOL      0.080457
    139 H66        -4.3020   -0.7600   -5.2300 hc        1 MOL      0.080457
    140 N12        -6.7420    0.4780   -0.8150 n         1 MOL     -0.500847
    141 C43        -7.7640    0.6190    0.2520 c3        1 MOL      0.093682
    142 C44        -7.3880   -0.0670    1.5570 c         1 MOL      0.502773
    143 O21        -8.2790   -0.6640    2.1860 o         1 MOL     -0.573682
    144 C45        -8.0520    2.1000    0.4230 c3        1 MOL      0.013136
    145 C46        -8.9430    2.4770    1.5900 c3        1 MOL     -0.187384
    146 C47       -10.4050    1.9730    1.4570 c3        1 MOL      0.014944
    147 C48       -11.1020    2.5130    0.2090 c3        1 MOL      0.071689
    148 N13       -12.4420    1.9170    0.0490 n4        1 MOL     -0.342014
    149 H67        -6.1490    1.2840   -0.9200 hn        1 MOL      0.300347
    150 H68        -8.6630    0.1200   -0.1000 h1        1 MOL      0.077319
    151 H69        -8.3640    2.4210   -0.5730 hc        1 MOL      0.010813
    152 H70        -7.0540    2.4940    0.6110 hc        1 MOL      0.010813
    153 H71        -8.9430    3.5610    1.5980 hc        1 MOL      0.097537
    154 H72        -8.4630    2.0980    2.4980 hc        1 MOL      0.097537
    155 H73       -10.9160    2.3430    2.3430 hc        1 MOL      0.035149
    156 H74       -10.4450    0.8790    1.4520 hc        1 MOL      0.035149
    157 H75       -10.6380    2.1420   -0.7050 hx        1 MOL      0.066143
    158 H76       -11.1140    3.5950    0.1740 hx        1 MOL      0.066143
    159 H77       -12.8010    2.0070   -0.8900 hn        1 MOL      0.268035
    160 H78       -12.5420    0.9170    0.1830 hn        1 MOL      0.268035
    161 H79       -13.0760    2.3860    0.6780 hn        1 MOL      0.268035
    162 N14        -6.1630   -0.0140    1.9930 n         1 MOL     -0.341795
    163 C49        -5.8050   -0.6520    3.2780 c3        1 MOL      0.043290
    164 C50        -6.2380    0.2870    4.4430 c         1 MOL      0.463310
    165 O22        -6.1550    1.4880    4.3510 o         1 MOL     -0.523142
    166 C51        -4.2920   -0.9220    3.5060 c3        1 MOL      0.111358
    167 C52        -3.6680   -1.8370    2.4670 c3        1 MOL      0.276068
    168 C53        -2.1220   -1.9150    2.4290 c         1 MOL      0.299500
    169 O23        -1.5370   -2.0840    1.3270 o         1 MOL     -0.576036
    170 O24        -1.4540   -1.8780    3.4510 o         1 MOL     -0.576036
    171 H80        -5.4250    0.5670    1.6420 hn        1 MOL      0.266498
    172 H81        -6.3700   -1.5650    3.4310 h1        1 MOL      0.047622
    173 H82        -4.1260   -1.4850    4.4290 hc        1 MOL     -0.021853
    174 H83        -3.8910    0.0840    3.6570 hc        1 MOL     -0.021853
    175 H84        -4.0500   -1.6160    1.4730 hc        1 MOL     -0.100920
    176 H85        -4.1040   -2.8210    2.6370 hc        1 MOL     -0.100920
    177 N15        -6.6960   -0.2960    5.5330 n         1 MOL     -0.329329
    178 C54        -7.4270    0.4150    6.5790 c3        1 MOL     -0.173040
    179 H86        -6.9310    0.2620    7.5370 h1        1 MOL      0.102080
    180 H87        -7.4480    1.4800    6.3480 h1        1 MOL      0.102080
    181 H88        -8.4460    0.0340    6.6330 h1        1 MOL      0.102080
    182 H89        -6.4860   -1.2860    5.5670 hn        1 MOL      0.258720
    183 Ca1         0.7250   -2.8510    2.1330 Ca        1 MOL      1.767472
    184 O25        -0.4800   -5.1490    1.6790 oh        1 MOL     -0.880881
    185 H90        -0.0420   -5.9150    2.0430 ho        1 MOL      0.433311
    186 H91        -1.2740   -5.4850    1.2760 ho        1 MOL      0.433311
    187 O26         0.0530   -4.0750    4.5430 oh        1 MOL     -0.880881
    188 H92        -0.3460   -4.9250    4.3420 ho        1 MOL      0.433311
    189 H93         0.0050   -4.0120    5.4960 ho        1 MOL      0.433311
    190 O27         1.8050   -1.3110    4.0870 oh        1 MOL     -0.880881
    191 H94         2.6060   -0.8220    3.9130 ho        1 MOL      0.433311
    192 H95         1.7470   -1.3740    5.0380 ho        1 MOL      0.433311
@<TRIPOS>BOND
     1    1    2 1   
     2    1    4 1   
     3    1    5 1   
     4    1    6 1   
     5    2    3 2   
     6    2    7 1   
     7    7    8 1   
     8    7   15 1   
     9    8    9 1   
    10    8   11 1   
    11    8   16 1   
    12    9   10 2   
    13    9   19 1   
    14   11   12 1   
    15   11   17 1   
    16   11   18 1   
    17   12   13 1   
    18   12   14 1   
    19   19   20 1   
    20   19   28 1   
    21   20   21 1   
    22   20   23 1   
    23   20   29 1   
    24   21   22 2   
    25   21   41 1   
    26   23   24 1   
    27   23   30 1   
    28   23   31 1   
    29   24   25 1   
    30   24   32 1   
    31   24   33 1   
    32   25   26 1   
    33   25   34 1   
    34   25   35 1   
    35   26   27 1   
    36   26   36 1   
    37   26   37 1   
    38   27   38 1   
    39   27   39 1   
    40   27   40 1   
    41   41   42 1   
    42   41   49 1   
    43   42   43 1   
    44   42   45 1   
    45   42   50 1   
    46   43   44 2   
    47   43   53 1   
    48   45   46 1   
    49   45   51 1   
    50   45   52 1   
    51   46   47 1   
    52   46   48 1   
    53   53   54 1   
    54   53   57 1   
    55   54   55 1   
    56   54   58 1   
    57   54   59 1   
    58   55   56 2   
    59   55   60 1   
    60   60   61 1   
    61   60   68 1   
    62   61   62 1   
    63   61   64 1   
    64   61   69 1   
    65   62   63 2   
    66   62   72 1   
    67   64   65 1   
    68   64   70 1   
    69   64   71 1   
    70   65   66 1   
    71   65   67 1   
    72   72   73 1   
    73   72   76 1   
    74   73   74 1   
    75   73   77 1   
    76   73   78 1   
    77   74   75 2   
    78   74   79 1   
    79   79   80 1   
    80   79   86 1   
    81   80   81 1   
    82   80   83 1   
    83   80   87 1   
    84   81   82 2   
    85   81   93 1   
    86   83   84 1   
    87   83   85 1   
    88   83   88 1   
    89   84   90 1   
    90   84   91 1   
    91   84   92 1   
    92   85   89 1   
    93   93   94 1   
    94   93  101 1   
    95   94   95 1   
    96   94   97 1   
    97   94  102 1   
    98   95   96 2   
    99   95  112 1   
   100   97   98 1   
   101   97   99 1   
   102   97  103 1   
   103   98  100 1   
   104   98  104 1   
   105   98  105 1   
   106   99  106 1   
   107   99  107 1   
   108   99  108 1   
   109  100  109 1   
   110  100  110 1   
   111  100  111 1   
   112  112  113 1   
   113  112  119 1   
   114  113  114 1   
   115  113  116 1   
   116  113  120 1   
   117  114  115 2   
   118  114  126 1   
   119  116  117 1   
   120  116  118 1   
   121  116  121 1   
   122  117  123 1   
   123  117  124 1   
   124  117  125 1   
   125  118  122 1   
   126  126  127 1   
   127  126  133 1   
   128  127  128 1   
   129  127  130 1   
   130  127  134 1   
   131  128  129 2   
   132  128  140 1   
   133  130  131 1   
   134  130  132 1   
   135  130  135 1   
   136  131  137 1   
   137  131  138 1   
   138  131  139 1   
   139  132  136 1   
   140  140  141 1   
   141  140  149 1   
   142  141  142 1   
   143  141  144 1   
   144  141  150 1   
   145  142  143 2   
   146  142  162 1   
   147  144  145 1   
   148  144  151 1   
   149  144  152 1   
   150  145  146 1   
   151  145  153 1   
   152  145  154 1   
   153  146  147 1   
   154  146  155 1   
   155  146  156 1   
   156  147  148 1   
   157  147  157 1   
   158  147  158 1   
   159  148  159 1   
   160  148  160 1   
   161  148  161 1   
   162  162  163 1   
   163  162  171 1   
   164  163  164 1   
   165  163  166 1   
   166  163  172 1   
   167  164  165 2   
   168  164  177 1   
   169  166  167 1   
   170  166  173 1   
   171  166  174 1   
   172  167  168 1   
   173  167  175 1   
   174  167  176 1   
   175  168  169 1   
   176  168  170 1   
   177  177  178 1   
   178  177  182 1   
   179  178  179 1   
   180  178  180 1   
   181  178  181 1   
   182  184  185 1   
   183  184  186 1   
   184  187  188 1   
   185  187  189 1   
   186  190  191 1   
   187  190  192 1   
@<TRIPOS>SUBSTRUCTURE
     1 MOL         1 TEMP              0 ****  ****    0 ROOT
