@<TRIPOS>MOLECULE
MOL
  192   187     1     0     0
SMALL
resp


@<TRIPOS>ATOM
      1 C1        -12.5500   -5.0460   -2.8260 c3        1 MOL     -0.442617
      2 C2        -12.1940   -3.6710   -2.1890 c         1 MOL      0.709411
      3 O1        -12.9060   -2.7200   -2.5260 o         1 MOL     -0.584542
      4 H1        -12.7200   -4.9180   -3.8950 hc        1 MOL      0.123500
      5 H2        -11.7280   -5.7440   -2.6700 hc        1 MOL      0.123500
      6 H3        -13.4540   -5.4400   -2.3590 hc        1 MOL      0.123500
      7 N1        -11.1730   -3.4490   -1.3180 n         1 MOL     -0.384620
      8 C3        -10.9160   -2.2480   -0.5700 c3        1 MOL     -0.072058
      9 C4         -9.4630   -1.6970   -0.7760 c         1 MOL      0.344554
     10 O2         -8.5020   -2.4830   -0.8470 o         1 MOL     -0.575388
     11 C5        -11.2520   -2.2970    0.8870 c3        1 MOL     -0.023426
     12 C6        -10.7570   -3.5380    1.6600 c         1 MOL      0.743656
     13 O3         -9.9080   -4.2540    1.0640 o         1 MOL     -0.713159
     14 O4        -11.2260   -3.9020    2.7810 o         1 MOL     -0.713159
     15 H4        -10.7840   -4.3220   -0.9870 hn        1 MOL      0.136256
     16 H5        -11.5140   -1.4220   -0.9420 h1        1 MOL      0.073952
     17 H6        -12.3310   -2.4370    0.8560 hc        1 MOL      0.048645
     18 H7        -11.0540   -1.4140    1.4910 hc        1 MOL      0.048645
     19 N2         -9.1930   -0.3780   -0.6580 n         1 MOL     -0.120083
     20 C7         -7.9250    0.3600   -0.7820 c3        1 MOL     -0.177536
     21 C8         -7.2090    0.5570    0.5160 c         1 MOL      0.635705
     22 O5         -7.7370    1.2680    1.3910 o         1 MOL     -0.549571
     23 C9         -8.3360    1.6750   -1.4790 c3        1 MOL     -0.018246
     24 C10        -6.9900    2.2920   -1.9200 c3        1 MOL      0.263632
     25 C11        -7.2250    3.6470   -2.5260 c3        1 MOL      0.149400
     26 C12        -5.9120    4.3630   -2.9270 c3        1 MOL     -0.225970
     27 N3         -5.2200    3.6640   -4.0810 n4        1 MOL     -0.208530
     28 H8        -10.0540    0.1370   -0.5000 hn        1 MOL      0.213900
     29 H9         -7.2990   -0.1750   -1.5060 h1        1 MOL      0.137059
     30 H10        -8.9330    2.2820   -0.8020 hc        1 MOL      0.023249
     31 H11        -9.0210    1.4060   -2.2790 hc        1 MOL      0.023249
     32 H12        -6.5960    1.6630   -2.7220 hc        1 MOL     -0.123253
     33 H13        -6.2550    2.3170   -1.1120 hc        1 MOL     -0.123253
     34 H14        -7.9320    4.2470   -1.9610 hc        1 MOL     -0.013761
     35 H15        -7.8390    3.5480   -3.4180 hc        1 MOL     -0.013761
     36 H16        -5.1960    4.4940   -2.1170 hx        1 MOL      0.156179
     37 H17        -6.0800    5.3870   -3.2590 hx        1 MOL      0.156179
     38 H18        -5.8280    3.4070   -4.8430 hn        1 MOL      0.251855
     39 H19        -4.4840    4.2410   -4.4660 hn        1 MOL      0.251855
     40 H20        -4.7650    2.8070   -3.8130 hn        1 MOL      0.251855
     41 N4         -6.0000    0.0110    0.6100 n         1 MOL     -0.560015
     42 C13        -5.0300    0.0070    1.6730 c3        1 MOL      0.518411
     43 C14        -3.6560   -0.0850    1.1610 c         1 MOL      0.277504
     44 O6         -3.4400   -0.6370    0.0680 o         1 MOL     -0.523582
     45 C15        -5.3980   -1.0830    2.6890 c3        1 MOL     -0.162571
     46 C16        -6.1240   -2.2430    2.0990 c         1 MOL      0.718129
     47 O7         -7.3680   -2.2750    1.9080 o         1 MOL     -0.755554
     48 O8         -5.4670   -3.3180    1.8330 o         1 MOL     -0.755554
     49 H21        -5.7880   -0.6200   -0.1450 hn        1 MOL      0.236989
     50 H22        -5.1440    0.9050    2.2890 h1        1 MOL     -0.015326
     51 H23        -6.1560   -0.6830    3.3760 hc        1 MOL      0.042603
     52 H24        -4.4950   -1.3300    3.2410 hc        1 MOL      0.042603
     53 N5         -2.5130    0.1500    1.8980 n         1 MOL     -0.346826
     54 C17        -2.4560    0.9860    3.1020 c3        1 MOL     -0.089649
     55 C18        -2.3150    2.5250    2.7750 c         1 MOL      0.616088
     56 O9         -2.7290    3.0280    1.7190 o         1 MOL     -0.554160
     57 H25        -1.6610   -0.2030    1.4920 hn        1 MOL      0.328904
     58 H26        -1.5970    0.6450    3.6840 h1        1 MOL      0.066943
     59 H27        -3.3610    0.8680    3.6880 h1        1 MOL      0.066943
     60 N6         -1.7670    3.2220    3.8140 n         1 MOL     -0.452487
     61 C19        -1.4430    4.6700    3.6770 c3        1 MOL      0.035294
     62 C20        -0.4540    5.0170    2.5500 c         1 MOL      0.446150
     63 O10         0.6080    4.3930    2.3870 o         1 MOL     -0.520567
     64 C21        -0.9040    5.1680    5.0620 c3        1 MOL     -0.251896
     65 C22        -0.8090    6.6990    5.0570 c         1 MOL      0.634697
     66 O11         0.2780    7.3040    4.7810 o         1 MOL     -0.663163
     67 O12        -1.8660    7.3910    5.1760 o         1 MOL     -0.663163
     68 H28        -1.3980    2.7150    4.6100 hn        1 MOL      0.282151
     69 H29        -2.4240    5.1440    3.6040 h1        1 MOL      0.060930
     70 H30         0.0320    4.6680    5.3100 hc        1 MOL      0.079821
     71 H31        -1.6390    4.9590    5.8330 hc        1 MOL      0.079821
     72 N7         -0.7880    6.0030    1.7510 n         1 MOL     -0.143542
     73 C23        -0.0210    6.5080    0.6010 c3        1 MOL     -0.121709
     74 C24        -0.1650    5.7000   -0.6590 c         1 MOL      0.552404
     75 O13         0.3400    6.1440   -1.6780 o         1 MOL     -0.569130
     76 H32        -1.6870    6.4420    1.8970 hn        1 MOL      0.220656
     77 H33         1.0430    6.5010    0.8590 h1        1 MOL      0.094028
     78 H34        -0.3530    7.4980    0.3100 h1        1 MOL      0.094028
     79 N8         -0.8420    4.5400   -0.5950 n         1 MOL     -0.184808
     80 C25        -0.8060    3.4880   -1.6370 c3        1 MOL      0.014059
     81 C26        -0.4360    2.1030   -1.1360 c         1 MOL      0.253241
     82 O14        -0.5980    1.7690    0.0670 o         1 MOL     -0.349642
     83 C27        -2.1400    3.3400   -2.3090 c3        1 MOL      0.027298
     84 C28        -3.2120    2.9380   -1.2820 c3        1 MOL     -0.137823
     85 O15        -2.5370    4.4880   -3.0070 oh        1 MOL     -0.613061
     86 H35        -1.4520    4.3830    0.2000 hn        1 MOL      0.095716
     87 H36        -0.0420    3.7940   -2.3520 h1        1 MOL      0.074279
     88 H37        -2.0060    2.5260   -3.0120 h1        1 MOL      0.019777
     89 H38        -1.9780    4.6200   -3.7830 ho        1 MOL      0.417174
     90 H39        -2.9190    2.1140   -0.6190 hc        1 MOL      0.095475
     91 H40        -3.4570    3.7190   -0.5560 hc        1 MOL      0.095475
     92 H41        -4.1200    2.6350   -1.7810 hc        1 MOL      0.095475
     93 N9          0.0490    1.2700   -2.0700 n         1 MOL     -0.109842
     94 C29         0.5340   -0.1210   -1.7680 c3        1 MOL     -0.208104
     95 C30         1.9040   -0.1330   -1.0110 c         1 MOL      0.498574
     96 O16         2.1000   -1.0590   -0.1890 o         1 MOL     -0.508360
     97 C31         0.6570   -0.9610   -3.0800 c3        1 MOL      0.140261
     98 C32        -0.7750   -0.9740   -3.6130 c3        1 MOL     -0.051495
     99 C33         1.1030   -2.4210   -2.9360 c3        1 MOL     -0.329169
    100 C34        -0.9520   -1.1620   -5.1020 c3        1 MOL     -0.114867
    101 H42         0.1780    1.6140   -3.0100 hn        1 MOL      0.203846
    102 H43        -0.1900   -0.6130   -1.1240 h1        1 MOL      0.123054
    103 H44         1.3010   -0.4410   -3.7960 hc        1 MOL      0.040730
    104 H45        -1.3950   -0.0930   -3.4140 hc        1 MOL      0.023876
    105 H46        -1.4110   -1.7600   -3.1920 hc        1 MOL      0.023876
    106 H47         0.2990   -3.0700   -2.5840 hc        1 MOL      0.104476
    107 H48         1.4720   -2.7910   -3.8900 hc        1 MOL      0.104476
    108 H49         1.9180   -2.6360   -2.2450 hc        1 MOL      0.104476
    109 H50        -0.7080   -2.1910   -5.3920 hc        1 MOL      0.020978
    110 H51        -1.9590   -0.9630   -5.4560 hc        1 MOL      0.020978
    111 H52        -0.2630   -0.5500   -5.6760 hc        1 MOL      0.020978
    112 N10         2.7940    0.8810   -1.1970 n         1 MOL     -0.335570
    113 C35         4.1030    1.1800   -0.6010 c3        1 MOL     -0.008150
    114 C36         5.0930    1.7900   -1.6080 c         1 MOL      0.711279
    115 O17         4.7070    2.1700   -2.6870 o         1 MOL     -0.539285
    116 C37         3.9500    2.0280    0.7130 c3        1 MOL      0.212395
    117 C38         3.3000    3.3400    0.3740 c3        1 MOL     -0.209558
    118 O18         2.9550    1.5330    1.5500 oh        1 MOL     -0.505002
    119 H53         2.5190    1.3670   -2.0270 hn        1 MOL      0.161432
    120 H54         4.5460    0.2110   -0.3510 h1        1 MOL      0.037578
    121 H55         4.9540    2.1240    1.1300 h1        1 MOL      0.030081
    122 H56         3.4270    0.9900    2.1870 ho        1 MOL      0.380009
    123 H57         3.8950    3.9800   -0.2780 hc        1 MOL      0.070549
    124 H58         2.3090    3.2630   -0.0640 hc        1 MOL      0.070549
    125 H59         3.3070    3.8780    1.3250 hc        1 MOL      0.070549
    126 N11         6.3830    1.8470   -1.3160 n         1 MOL     -0.732853
    127 C39         7.4790    2.0860   -2.3530 c3        1 MOL     -0.017677
    128 C40         8.5270    0.9580   -2.3150 c         1 MOL      0.632190
    129 O19         9.1590    0.7070   -3.3030 o         1 MOL     -0.567624
    130 C41         8.1770    3.4210   -1.9810 c3        1 MOL      0.460019
    131 C42         9.4000    3.8690   -2.7600 c3        1 MOL     -0.466136
    132 O20         8.4510    3.5850   -0.6170 oh        1 MOL     -0.610174
    133 H60         6.6250    1.4770   -0.4040 hn        1 MOL      0.325064
    134 H61         7.1520    2.3850   -3.3540 h1        1 MOL      0.104280
    135 H62         7.5260    4.2250   -2.3470 h1        1 MOL     -0.005039
    136 H63         7.8670    4.3200   -0.4180 ho        1 MOL      0.378324
    137 H64         9.2060    3.7230   -3.8160 hc        1 MOL      0.117913
    138 H65         9.5550    4.9310   -2.5640 hc        1 MOL      0.117913
    139 H66        10.2110    3.2270   -2.4170 hc        1 MOL      0.117913
    140 N12         8.6920    0.2820   -1.1750 n         1 MOL     -0.395519
    141 C43         9.6020   -0.8450   -0.9340 c3        1 MOL     -0.011936
    142 C44         9.2860   -1.6730    0.3540 c         1 MOL      0.445910
    143 O21         8.9820   -1.0330    1.3710 o         1 MOL     -0.487163
    144 C45        11.0510   -0.2320   -0.7270 c3        1 MOL     -0.303493
    145 C46        12.0490   -1.3590   -0.4610 c3        1 MOL      0.072076
    146 C47        13.4580   -0.7900   -0.4140 c3        1 MOL      0.136290
    147 C48        14.5370   -1.8010   -0.1360 c3        1 MOL      0.188952
    148 N13        15.9000   -1.2100    0.0850 n4        1 MOL     -0.318619
    149 H67         8.2210    0.7040   -0.3870 hn        1 MOL      0.261504
    150 H68         9.5520   -1.5190   -1.7920 h1        1 MOL      0.084451
    151 H69        11.0110    0.4480    0.1300 hc        1 MOL      0.134454
    152 H70        11.3230    0.2710   -1.6650 hc        1 MOL      0.134454
    153 H71        12.0310   -2.1460   -1.2060 hc        1 MOL      0.002010
    154 H72        11.8370   -1.7730    0.5310 hc        1 MOL      0.002010
    155 H73        13.6020    0.0270    0.2890 hc        1 MOL     -0.041416
    156 H74        13.7040   -0.4260   -1.4110 hc        1 MOL     -0.041416
    157 H75        14.6470   -2.3880   -1.0510 hx        1 MOL      0.021379
    158 H76        14.2050   -2.5170    0.6100 hx        1 MOL      0.021379
    159 H77        16.2140   -0.5620   -0.6230 hn        1 MOL      0.270724
    160 H78        15.9280   -0.7190    0.9600 hn        1 MOL      0.270724
    161 H79        16.6010   -1.9440    0.1290 hn        1 MOL      0.270724
    162 N14         9.3870   -3.0060    0.3980 n         1 MOL     -0.300594
    163 C49         8.8970   -3.7790    1.5370 c3        1 MOL      0.038249
    164 C50         7.3510   -3.6390    1.7850 c         1 MOL      0.406093
    165 O22         6.8400   -3.2760    2.8430 o         1 MOL     -0.520820
    166 C51         9.4160   -5.2270    1.4070 c3        1 MOL      0.193393
    167 C52        10.9720   -5.3270    1.5100 c3        1 MOL     -0.370536
    168 C53        11.5270   -6.7610    1.5320 c         1 MOL      0.742666
    169 O23        12.1440   -7.1840    2.5340 o         1 MOL     -0.675254
    170 O24        11.3950   -7.5280    0.5560 o         1 MOL     -0.675254
    171 H80         9.7420   -3.4410   -0.4430 hn        1 MOL      0.257072
    172 H81         9.4220   -3.4840    2.4460 h1        1 MOL      0.074319
    173 H82         9.0710   -5.6580    0.4670 hc        1 MOL     -0.002551
    174 H83         8.8750   -5.9030    2.0600 hc        1 MOL     -0.002551
    175 H84        11.3260   -4.8760    2.4450 hc        1 MOL      0.051205
    176 H85        11.4260   -4.8040    0.6720 hc        1 MOL      0.051205
    177 N15         6.3830   -4.0160    0.9070 n         1 MOL     -0.329519
    178 C54         6.5260   -4.6240   -0.4250 c3        1 MOL     -0.039846
    179 H86         5.6160   -4.4550   -1.0000 h1        1 MOL      0.036297
    180 H87         7.3720   -4.1710   -0.9420 h1        1 MOL      0.036297
    181 H88         6.6950   -5.6950   -0.3190 h1        1 MOL      0.036297
    182 H89         5.4270   -3.9260    1.2290 hn        1 MOL      0.294640
    183 Ca1        -7.4170   -4.4310    0.4420 Ca        1 MOL      1.751454
    184 O25        -5.4310   -6.0650    0.1660 oh        1 MOL     -0.895725
    185 H90        -5.6810   -6.8560    0.6430 ho        1 MOL      0.442014
    186 H91        -4.5300   -5.8820    0.4640 ho        1 MOL      0.442014
    187 O26        -7.0430   -6.0100    2.5800 oh        1 MOL     -0.895725
    188 H92        -6.4030   -6.6250    2.9590 ho        1 MOL      0.442014
    189 H93        -7.6130   -5.7840    3.3080 ho        1 MOL      0.442014
    190 O27        -6.0570   -3.1790   -1.3690 oh        1 MOL     -0.895725
    191 H94        -6.2920   -3.3410   -2.2850 ho        1 MOL      0.442014
    192 H95        -5.0980   -3.2560   -1.3600 ho        1 MOL      0.442014
@<TRIPOS>BOND
     1    1    2 1   
     2    1    4 1   
     3    1    5 1   
     4    1    6 1   
     5    2    3 2   
     6    2    7 1   
     7    7    8 1   
     8    7   15 1   
     9    8    9 1   
    10    8   11 1   
    11    8   16 1   
    12    9   10 2   
    13    9   19 1   
    14   11   12 1   
    15   11   17 1   
    16   11   18 1   
    17   12   13 1   
    18   12   14 1   
    19   19   20 1   
    20   19   28 1   
    21   20   21 1   
    22   20   23 1   
    23   20   29 1   
    24   21   22 2   
    25   21   41 1   
    26   23   24 1   
    27   23   30 1   
    28   23   31 1   
    29   24   25 1   
    30   24   32 1   
    31   24   33 1   
    32   25   26 1   
    33   25   34 1   
    34   25   35 1   
    35   26   27 1   
    36   26   36 1   
    37   26   37 1   
    38   27   38 1   
    39   27   39 1   
    40   27   40 1   
    41   41   42 1   
    42   41   49 1   
    43   42   43 1   
    44   42   45 1   
    45   42   50 1   
    46   43   44 2   
    47   43   53 1   
    48   45   46 1   
    49   45   51 1   
    50   45   52 1   
    51   46   47 1   
    52   46   48 1   
    53   53   54 1   
    54   53   57 1   
    55   54   55 1   
    56   54   58 1   
    57   54   59 1   
    58   55   56 2   
    59   55   60 1   
    60   60   61 1   
    61   60   68 1   
    62   61   62 1   
    63   61   64 1   
    64   61   69 1   
    65   62   63 2   
    66   62   72 1   
    67   64   65 1   
    68   64   70 1   
    69   64   71 1   
    70   65   66 1   
    71   65   67 1   
    72   72   73 1   
    73   72   76 1   
    74   73   74 1   
    75   73   77 1   
    76   73   78 1   
    77   74   75 2   
    78   74   79 1   
    79   79   80 1   
    80   79   86 1   
    81   80   81 1   
    82   80   83 1   
    83   80   87 1   
    84   81   82 2   
    85   81   93 1   
    86   83   84 1   
    87   83   85 1   
    88   83   88 1   
    89   84   90 1   
    90   84   91 1   
    91   84   92 1   
    92   85   89 1   
    93   93   94 1   
    94   93  101 1   
    95   94   95 1   
    96   94   97 1   
    97   94  102 1   
    98   95   96 2   
    99   95  112 1   
   100   97   98 1   
   101   97   99 1   
   102   97  103 1   
   103   98  100 1   
   104   98  104 1   
   105   98  105 1   
   106   99  106 1   
   107   99  107 1   
   108   99  108 1   
   109  100  109 1   
   110  100  110 1   
   111  100  111 1   
   112  112  113 1   
   113  112  119 1   
   114  113  114 1   
   115  113  116 1   
   116  113  120 1   
   117  114  115 2   
   118  114  126 1   
   119  116  117 1   
   120  116  118 1   
   121  116  121 1   
   122  117  123 1   
   123  117  124 1   
   124  117  125 1   
   125  118  122 1   
   126  126  127 1   
   127  126  133 1   
   128  127  128 1   
   129  127  130 1   
   130  127  134 1   
   131  128  129 2   
   132  128  140 1   
   133  130  131 1   
   134  130  132 1   
   135  130  135 1   
   136  131  137 1   
   137  131  138 1   
   138  131  139 1   
   139  132  136 1   
   140  140  141 1   
   141  140  149 1   
   142  141  142 1   
   143  141  144 1   
   144  141  150 1   
   145  142  143 2   
   146  142  162 1   
   147  144  145 1   
   148  144  151 1   
   149  144  152 1   
   150  145  146 1   
   151  145  153 1   
   152  145  154 1   
   153  146  147 1   
   154  146  155 1   
   155  146  156 1   
   156  147  148 1   
   157  147  157 1   
   158  147  158 1   
   159  148  159 1   
   160  148  160 1   
   161  148  161 1   
   162  162  163 1   
   163  162  171 1   
   164  163  164 1   
   165  163  166 1   
   166  163  172 1   
   167  164  165 2   
   168  164  177 1   
   169  166  167 1   
   170  166  173 1   
   171  166  174 1   
   172  167  168 1   
   173  167  175 1   
   174  167  176 1   
   175  168  169 1   
   176  168  170 1   
   177  177  178 1   
   178  177  182 1   
   179  178  179 1   
   180  178  180 1   
   181  178  181 1   
   182  184  185 1   
   183  184  186 1   
   184  187  188 1   
   185  187  189 1   
   186  190  191 1   
   187  190  192 1   
@<TRIPOS>SUBSTRUCTURE
     1 MOL         1 TEMP              0 ****  ****    0 ROOT
