@<TRIPOS>MOLECULE
MOL
  188   182     1     0     0
SMALL
resp


@<TRIPOS>ATOM
      1 C1         -6.6220   -0.6970    3.6820 c3        1 MOL     -0.533804
      2 C2         -6.9530   -0.7110    2.1950 c         1 MOL      0.683013
      3 O1         -6.2530   -0.2460    1.3800 o         1 MOL     -0.496183
      4 H1         -5.5640   -0.9220    3.8190 hc        1 MOL      0.137836
      5 H2         -6.8400    0.2880    4.0950 hc        1 MOL      0.137836
      6 H3         -7.2230   -1.4480    4.1960 hc        1 MOL      0.137836
      7 N1         -8.1480   -1.2420    1.8370 n         1 MOL     -0.675175
      8 C3         -8.4980   -1.6470    0.5050 c3        1 MOL      0.351008
      9 C4         -8.2640   -0.6030   -0.6310 c         1 MOL      0.327888
     10 O2         -7.5330   -0.8540   -1.6080 o         1 MOL     -0.447299
     11 C5         -7.8430   -3.0310    0.0890 c3        1 MOL     -0.379545
     12 C6         -8.4430   -3.7730   -1.0800 c         1 MOL      0.697334
     13 O3         -7.9280   -4.9080   -1.2720 o         1 MOL     -0.650778
     14 O4         -9.4610   -3.4380   -1.6890 o         1 MOL     -0.650778
     15 H4         -8.7920   -1.6110    2.5240 hn        1 MOL      0.335439
     16 H5         -9.5790   -1.6780    0.5730 h1        1 MOL     -0.026093
     17 H6         -7.9870   -3.6780    0.9570 hc        1 MOL      0.120350
     18 H7         -6.7760   -3.0010   -0.0990 hc        1 MOL      0.120350
     19 N2         -8.7230    0.6120   -0.3570 n         1 MOL     -0.324003
     20 C7         -8.4570    1.7080   -1.2260 c3        1 MOL     -0.013179
     21 C8         -6.9920    2.2940   -1.2970 c         1 MOL      0.383798
     22 O5         -6.7130    3.3430   -1.8830 o         1 MOL     -0.521575
     23 C9         -9.4960    2.7990   -0.9550 c3        1 MOL     -0.153503
     24 C10        -9.3130    3.1930    0.5580 c3        1 MOL      0.052252
     25 C11       -10.7120    3.7110    0.9820 c3        1 MOL     -0.025911
     26 C12       -10.6010    4.0360    2.5020 c3        1 MOL      0.010632
     27 N3        -11.8710    4.2440    3.1880 n4        1 MOL     -0.021872
     28 H8         -9.0850    0.7410    0.5770 hn        1 MOL      0.254097
     29 H9         -8.6770    1.2550   -2.2020 h1        1 MOL      0.148117
     30 H10       -10.4660    2.3150   -1.0370 hc        1 MOL      0.070600
     31 H11        -9.3270    3.6890   -1.5570 hc        1 MOL      0.070600
     32 H12        -8.4740    3.8790    0.5950 hc        1 MOL      0.020891
     33 H13        -9.1550    2.3470    1.2200 hc        1 MOL      0.020891
     34 H14       -11.5260    2.9930    0.8350 hc        1 MOL      0.029550
     35 H15       -11.1260    4.5660    0.4520 hc        1 MOL      0.029550
     36 H16       -10.0010    4.9340    2.6190 hx        1 MOL      0.041935
     37 H17       -10.1590    3.2290    3.0970 hx        1 MOL      0.041935
     38 H18       -11.8550    4.7050    4.0830 hn        1 MOL      0.151922
     39 H19       -12.4700    4.7300    2.5290 hn        1 MOL      0.151922
     40 H20       -12.2910    3.3380    3.3420 hn        1 MOL      0.151922
     41 N4         -6.0820    1.7090   -0.5580 n         1 MOL     -0.171043
     42 C13        -4.6950    2.1130   -0.6030 c3        1 MOL     -0.088557
     43 C14        -4.1560    2.0550   -2.0720 c         1 MOL      0.632320
     44 O6         -4.3240    1.0460   -2.7570 o         1 MOL     -0.470734
     45 C15        -3.9060    1.2030    0.3410 c3        1 MOL     -0.325757
     46 C16        -2.3870    1.4670    0.4170 c         1 MOL      0.899013
     47 O7         -1.8640    1.9060    1.4680 o         1 MOL     -0.795738
     48 O8         -1.7160    1.1460   -0.5820 o         1 MOL     -0.795738
     49 H21        -6.1950    0.8390   -0.0600 hn        1 MOL      0.178844
     50 H22        -4.6700    3.1550   -0.2840 h1        1 MOL      0.025620
     51 H23        -4.0870    0.2400   -0.1250 hc        1 MOL      0.124068
     52 H24        -4.4080    1.2440    1.3080 hc        1 MOL      0.124068
     53 N5         -3.2440    2.9340   -2.3710 n         1 MOL     -0.388302
     54 C17        -2.6160    3.1780   -3.6320 c3        1 MOL     -0.247817
     55 C18        -1.7160    2.0470   -4.1650 c         1 MOL      0.580995
     56 O9         -1.1240    2.0500   -5.2390 o         1 MOL     -0.591057
     57 H25        -2.8940    3.5400   -1.6520 hn        1 MOL      0.293440
     58 H26        -1.9280    4.0250   -3.5360 h1        1 MOL      0.131512
     59 H27        -3.3390    3.3190   -4.4350 h1        1 MOL      0.131512
     60 N6         -1.4510    1.0480   -3.3080 n         1 MOL     -0.127854
     61 C19        -0.6460   -0.1160   -3.6740 c3        1 MOL     -0.149675
     62 C20        -1.4220   -1.4670   -3.3750 c         1 MOL      0.349528
     63 O10        -0.8500   -2.5350   -3.4530 o         1 MOL     -0.491522
     64 C21         0.6580   -0.1500   -2.8970 c3        1 MOL     -0.056673
     65 C22         1.5230    1.0730   -2.8020 c         1 MOL      0.617455
     66 N7          2.1570    1.3850   -3.8670 n         1 MOL     -0.688265
     67 O11         1.5930    1.6740   -1.7780 o         1 MOL     -0.604780
     68 H28        -1.8580    1.1090   -2.3880 hn        1 MOL      0.077664
     69 H29        -0.4250   -0.1630   -4.7360 h1        1 MOL      0.139972
     70 H30         1.2370   -1.0100   -3.2190 hc        1 MOL      0.051696
     71 H31         0.3150   -0.4140   -1.8910 hc        1 MOL      0.051696
     72 H32         2.0410    0.8680   -4.7230 hn        1 MOL      0.355470
     73 H33         2.9400    2.0200   -3.7540 hn        1 MOL      0.355470
     74 N8         -2.6860   -1.4350   -3.0600 n         1 MOL     -0.080067
     75 C23        -3.3730   -2.5750   -2.5270 c3        1 MOL     -0.198790
     76 C24        -2.8930   -3.0180   -1.1620 c         1 MOL      0.596535
     77 O12        -3.2490   -4.1100   -0.7390 o         1 MOL     -0.520938
     78 H34        -3.1920   -0.5660   -3.2040 hn        1 MOL      0.153972
     79 H35        -3.2800   -3.4940   -3.1110 h1        1 MOL      0.130768
     80 H36        -4.4330   -2.3520   -2.5250 h1        1 MOL      0.130768
     81 N9         -2.0750   -2.1440   -0.4830 n         1 MOL     -0.352752
     82 C25        -1.3240   -2.5150    0.7630 c3        1 MOL     -0.130202
     83 C26         0.0860   -1.7940    0.9090 c         1 MOL      0.480677
     84 O13         0.2270   -0.5850    0.7210 o         1 MOL     -0.467304
     85 C27        -2.1830   -2.1380    2.0300 c3        1 MOL     -0.164386
     86 C28        -1.5750   -2.4010    3.3770 ca        1 MOL     -0.007878
     87 C29        -1.2140   -3.6700    3.8230 ca        1 MOL     -0.083208
     88 C30        -1.3840   -1.2430    4.1630 ca        1 MOL     -0.083208
     89 C31        -0.6780   -3.8170    5.0680 ca        1 MOL     -0.296273
     90 C32        -0.8700   -1.4320    5.4610 ca        1 MOL     -0.296273
     91 C33        -0.4770   -2.7410    5.8980 ca        1 MOL      0.362240
     92 O14        -0.0230   -3.0440    7.1350 oh        1 MOL     -0.453954
     93 H37        -1.9610   -1.2260   -0.8930 hn        1 MOL      0.188264
     94 H38        -1.1520   -3.5900    0.7460 h1        1 MOL      0.103033
     95 H39        -3.1590   -2.6150    1.9580 hc        1 MOL      0.120899
     96 H40        -2.3760   -1.0730    1.9080 hc        1 MOL      0.120899
     97 H41        -1.2970   -4.5490    3.1960 ha        1 MOL      0.136462
     98 H42        -1.7360   -0.2550    3.8930 ha        1 MOL      0.136462
     99 H43        -0.2130   -4.7800    5.2400 ha        1 MOL      0.135028
    100 H44        -0.7510   -0.5580    6.0860 ha        1 MOL      0.135028
    101 H45        -0.0520   -2.2500    7.6730 ho        1 MOL      0.350851
    102 N10         1.0990   -2.6270    1.2550 n         1 MOL     -0.307410
    103 C34         2.5300   -2.3100    1.2430 c3        1 MOL      0.000093
    104 C35         3.1570   -2.1580   -0.1530 c         1 MOL      0.238947
    105 O15         3.8680   -1.2220   -0.4150 o         1 MOL     -0.445390
    106 C36         3.1940   -3.4730    2.0280 c3        1 MOL      0.029959
    107 C37         2.6490   -3.6370    3.4700 c3        1 MOL      0.228332
    108 C38         4.7050   -3.3090    2.0900 c3        1 MOL     -0.523394
    109 C39         2.6730   -2.2900    4.3030 c3        1 MOL     -0.043912
    110 H46         0.8860   -3.5660    1.5310 hn        1 MOL      0.229900
    111 H47         2.7420   -1.3580    1.7280 h1        1 MOL      0.119162
    112 H48         3.0350   -4.4410    1.5600 hc        1 MOL      0.007822
    113 H49         3.2990   -4.3390    3.9880 hc        1 MOL     -0.037486
    114 H50         1.6820   -4.1490    3.4090 hc        1 MOL     -0.037486
    115 H51         5.0860   -3.2780    1.0650 hc        1 MOL      0.154365
    116 H52         4.9410   -2.4210    2.6680 hc        1 MOL      0.154365
    117 H53         5.1200   -4.1180    2.6970 hc        1 MOL      0.154365
    118 H54         1.7400   -1.8250    3.9940 hc        1 MOL     -0.005983
    119 H55         2.5110   -2.5590    5.3500 hc        1 MOL     -0.005983
    120 H56         3.5430   -1.6450    4.2110 hc        1 MOL     -0.005983
    121 N11         2.9260   -3.0710   -1.0710 n         1 MOL     -0.123766
    122 C40         3.2810   -2.8370   -2.5170 c3        1 MOL     -0.073492
    123 C41         4.8080   -2.7470   -2.6520 c         1 MOL      0.496525
    124 O16         5.3750   -1.9140   -3.4420 o         1 MOL     -0.524845
    125 C42         2.6820   -3.8860   -3.4480 c3        1 MOL      0.178488
    126 O17         2.8900   -5.2110   -2.9110 oh        1 MOL     -0.673529
    127 H57         2.4360   -3.8880   -0.7570 hn        1 MOL      0.221046
    128 H58         2.9540   -1.8660   -2.8670 h1        1 MOL      0.053948
    129 H59         3.1800   -3.8560   -4.4090 h1        1 MOL      0.044694
    130 H60         1.6060   -3.6960   -3.5140 h1        1 MOL      0.044694
    131 H61         2.3520   -5.8670   -3.3670 ho        1 MOL      0.445745
    132 N12         5.5430   -3.4440   -1.7570 n         1 MOL     -0.291701
    133 C43         6.9800   -3.4890   -1.6490 c3        1 MOL      0.091288
    134 C44         7.6810   -2.1350   -1.6430 c         1 MOL      0.686075
    135 O18         8.8850   -2.0510   -1.7110 o         1 MOL     -0.593426
    136 C45         7.5160   -4.5050   -2.6810 c3        1 MOL     -0.390427
    137 H62         5.1450   -4.1080   -1.1160 hn        1 MOL      0.248573
    138 H63         7.2550   -3.8620   -0.6590 h1        1 MOL      0.051129
    139 H64         7.1680   -5.5090   -2.4950 hc        1 MOL      0.116615
    140 H65         7.1900   -4.2360   -3.6930 hc        1 MOL      0.116615
    141 H66         8.6010   -4.4530   -2.7710 hc        1 MOL      0.116615
    142 N13         6.9920   -1.0180   -1.4110 n         1 MOL     -0.689059
    143 C46         7.5170    0.3610   -1.6190 c3        1 MOL      0.453741
    144 C47         7.8310    1.0000   -0.2380 c         1 MOL      0.434895
    145 O19         7.0950    0.8470    0.7520 o         1 MOL     -0.513156
    146 C48         6.5090    1.1090   -2.3720 c3        1 MOL     -0.212451
    147 H67         6.0320   -1.2320   -1.2190 hn        1 MOL      0.247557
    148 H68         8.4650    0.2860   -2.1550 h1        1 MOL      0.011068
    149 H69         6.5120    0.6230   -3.3470 hc        1 MOL      0.053624
    150 H70         5.5240    1.2190   -1.9260 hc        1 MOL      0.053624
    151 H71         6.9150    2.1040   -2.5410 hc        1 MOL      0.053624
    152 N14         8.9520    1.7540   -0.2600 n         1 MOL     -0.553224
    153 C49         9.5620    2.4460    0.9020 c3        1 MOL      0.336221
    154 C50         9.7690    1.5930    2.1750 c         1 MOL      0.260871
    155 O20         9.6100    2.1580    3.2540 o         1 MOL     -0.478237
    156 C51         8.8440    3.8200    1.2010 c3        1 MOL      0.040745
    157 C52         8.5850    4.8120    0.0740 c3        1 MOL     -0.333200
    158 C53         8.2980    6.1790    0.6920 c         1 MOL      0.830644
    159 O21         9.0480    7.1450    0.6670 o         1 MOL     -0.701971
    160 O22         7.1400    6.2880    1.0970 o         1 MOL     -0.701971
    161 H72         9.4840    1.8850   -1.1070 hn        1 MOL      0.277661
    162 H73        10.5730    2.6420    0.5680 h1        1 MOL     -0.021429
    163 H74         9.4000    4.3590    1.9630 hc        1 MOL      0.017155
    164 H75         7.8870    3.5640    1.6570 hc        1 MOL      0.017155
    165 H76         7.8510    4.4800   -0.6710 hc        1 MOL      0.031298
    166 H77         9.5270    5.0650   -0.4010 hc        1 MOL      0.031298
    167 N15        10.0120    0.2650    2.0780 n         1 MOL     -0.161705
    168 C54        10.1000   -0.6490    3.1800 c3        1 MOL     -0.066226
    169 H78        11.1480   -0.8440    3.4060 h1        1 MOL      0.056631
    170 H79         9.6150   -0.2140    4.0540 h1        1 MOL      0.056631
    171 H80         9.6050   -1.5850    2.9180 h1        1 MOL      0.056631
    172 H81        10.2420   -0.0790    1.1640 hn        1 MOL      0.188555
    173 Ca1         0.6040    2.2510    0.6080 Ca        1 MOL      1.724934
    174 O23         2.9920    1.1630    0.6970 oh        1 MOL     -0.833608
    175 H82         3.2700    0.4910    0.0790 ho        1 MOL      0.418767
    176 H83         3.7300    1.7770    0.7430 ho        1 MOL      0.418767
    177 O24         0.4340    4.4440    2.1440 oh        1 MOL     -0.833608
    178 H84         1.0320    4.7540    2.8280 ho        1 MOL      0.418767
    179 H85        -0.2750    5.0910    2.1340 ho        1 MOL      0.418767
    180 O25         2.6500    4.2520   -0.0660 oh        1 MOL     -0.833608
    181 H86         2.5990    5.2070   -0.0790 ho        1 MOL      0.418767
    182 H87         3.5340    4.0540    0.2400 ho        1 MOL      0.418767
    183 O26        -0.5020    4.3580   -0.5900 oh        1 MOL     -0.833608
    184 H88        -0.0250    4.7320   -1.3390 ho        1 MOL      0.418767
    185 H89        -1.2560    4.9380   -0.4740 ho        1 MOL      0.418767
    186 O27         1.3440    1.6460    3.0920 oh        1 MOL     -0.833608
    187 H90         2.2060    1.5290    3.4950 ho        1 MOL      0.418767
    188 H91         0.8230    2.0820    3.7650 ho        1 MOL      0.418767
@<TRIPOS>BOND
     1    1    2 1   
     2    1    4 1   
     3    1    5 1   
     4    1    6 1   
     5    2    3 2   
     6    2    7 1   
     7    7    8 1   
     8    7   15 1   
     9    8    9 1   
    10    8   11 1   
    11    8   16 1   
    12    9   10 2   
    13    9   19 1   
    14   11   12 1   
    15   11   17 1   
    16   11   18 1   
    17   12   13 1   
    18   12   14 1   
    19   19   20 1   
    20   19   28 1   
    21   20   21 1   
    22   20   23 1   
    23   20   29 1   
    24   21   22 2   
    25   21   41 1   
    26   23   24 1   
    27   23   30 1   
    28   23   31 1   
    29   24   25 1   
    30   24   32 1   
    31   24   33 1   
    32   25   26 1   
    33   25   34 1   
    34   25   35 1   
    35   26   27 1   
    36   26   36 1   
    37   26   37 1   
    38   27   38 1   
    39   27   39 1   
    40   27   40 1   
    41   41   42 1   
    42   41   49 1   
    43   42   43 1   
    44   42   45 1   
    45   42   50 1   
    46   43   44 2   
    47   43   53 1   
    48   45   46 1   
    49   45   51 1   
    50   45   52 1   
    51   46   47 1   
    52   46   48 1   
    53   53   54 1   
    54   53   57 1   
    55   54   55 1   
    56   54   58 1   
    57   54   59 1   
    58   55   56 2   
    59   55   60 1   
    60   60   61 1   
    61   60   68 1   
    62   61   62 1   
    63   61   64 1   
    64   61   69 1   
    65   62   63 2   
    66   62   74 1   
    67   64   65 1   
    68   64   70 1   
    69   64   71 1   
    70   65   66 1   
    71   65   67 2   
    72   66   72 1   
    73   66   73 1   
    74   74   75 1   
    75   74   78 1   
    76   75   76 1   
    77   75   79 1   
    78   75   80 1   
    79   76   77 2   
    80   76   81 1   
    81   81   82 1   
    82   81   93 1   
    83   82   83 1   
    84   82   85 1   
    85   82   94 1   
    86   83   84 2   
    87   83  102 1   
    88   85   86 1   
    89   85   95 1   
    90   85   96 1   
    91   86   87 ar  
    92   86   88 ar  
    93   87   89 ar  
    94   87   97 1   
    95   88   90 ar  
    96   88   98 1   
    97   89   91 ar  
    98   89   99 1   
    99   90   91 ar  
   100   90  100 1   
   101   91   92 1   
   102   92  101 1   
   103  102  103 1   
   104  102  110 1   
   105  103  104 1   
   106  103  106 1   
   107  103  111 1   
   108  104  105 2   
   109  104  121 1   
   110  106  107 1   
   111  106  108 1   
   112  106  112 1   
   113  107  109 1   
   114  107  113 1   
   115  107  114 1   
   116  108  115 1   
   117  108  116 1   
   118  108  117 1   
   119  109  118 1   
   120  109  119 1   
   121  109  120 1   
   122  121  122 1   
   123  121  127 1   
   124  122  123 1   
   125  122  125 1   
   126  122  128 1   
   127  123  124 2   
   128  123  132 1   
   129  125  126 1   
   130  125  129 1   
   131  125  130 1   
   132  126  131 1   
   133  132  133 1   
   134  132  137 1   
   135  133  134 1   
   136  133  136 1   
   137  133  138 1   
   138  134  135 2   
   139  134  142 1   
   140  136  139 1   
   141  136  140 1   
   142  136  141 1   
   143  142  143 1   
   144  142  147 1   
   145  143  144 1   
   146  143  146 1   
   147  143  148 1   
   148  144  145 2   
   149  144  152 1   
   150  146  149 1   
   151  146  150 1   
   152  146  151 1   
   153  152  153 1   
   154  152  161 1   
   155  153  154 1   
   156  153  156 1   
   157  153  162 1   
   158  154  155 2   
   159  154  167 1   
   160  156  157 1   
   161  156  163 1   
   162  156  164 1   
   163  157  158 1   
   164  157  165 1   
   165  157  166 1   
   166  158  159 1   
   167  158  160 1   
   168  167  168 1   
   169  167  172 1   
   170  168  169 1   
   171  168  170 1   
   172  168  171 1   
   173  174  175 1   
   174  174  176 1   
   175  177  178 1   
   176  177  179 1   
   177  180  181 1   
   178  180  182 1   
   179  183  184 1   
   180  183  185 1   
   181  186  187 1   
   182  186  188 1   
@<TRIPOS>SUBSTRUCTURE
     1 MOL         1 TEMP              0 ****  ****    0 ROOT
