@<TRIPOS>MOLECULE
MOL
  192   187     1     0     0
SMALL
resp


@<TRIPOS>ATOM
      1 C1         12.5240    5.0150   -2.6620 c3        1 MOL     -0.236791
      2 C2         11.9070    3.6650   -2.5650 c         1 MOL      0.634108
      3 O1         12.3510    2.7630   -3.2370 o         1 MOL     -0.613495
      4 H1         12.4020    5.5380   -1.7140 hc        1 MOL      0.064366
      5 H2         13.5860    4.9150   -2.8880 hc        1 MOL      0.064366
      6 H3         12.0360    5.5820   -3.4550 hc        1 MOL      0.064366
      7 N1         10.9720    3.4720   -1.7170 n         1 MOL     -0.146157
      8 C3         10.5360    2.2170   -1.1600 c3        1 MOL     -0.343715
      9 C4          9.0280    1.8760   -1.2610 c         1 MOL      0.581255
     10 O2          8.1620    2.7750   -0.9620 o         1 MOL     -0.704057
     11 C5         10.9820    2.0450    0.3180 c3        1 MOL      0.054776
     12 C6         10.6240    3.2000    1.2760 c         1 MOL      0.573759
     13 O3          9.8660    4.1650    0.9390 o         1 MOL     -0.636290
     14 O4         10.9990    3.1770    2.4660 o         1 MOL     -0.636290
     15 H4         10.5490    4.2970   -1.3350 hn        1 MOL      0.068815
     16 H5         11.0240    1.4160   -1.7010 h1        1 MOL      0.122893
     17 H6         12.0610    1.8790    0.4150 hc        1 MOL      0.042516
     18 H7         10.4760    1.1180    0.5950 hc        1 MOL      0.042516
     19 N2          8.6370    0.6050   -1.3290 n         1 MOL     -0.341578
     20 C7          7.2600    0.0960   -1.3140 c3        1 MOL      0.081883
     21 C8          6.6460   -0.2680    0.0990 c         1 MOL      0.602007
     22 O5          7.3040   -0.8080    1.0150 o         1 MOL     -0.493064
     23 C9          7.0020   -1.0320   -2.3200 c3        1 MOL     -0.124904
     24 C10         7.1470   -0.6880   -3.8600 c3        1 MOL      0.053367
     25 C11         6.5900   -1.8250   -4.7450 c3        1 MOL      0.048101
     26 C12         7.2250   -3.0970   -4.3600 c3        1 MOL     -0.022578
     27 N3          6.9130   -4.1330   -5.3680 n4        1 MOL     -0.245211
     28 H8          9.3590   -0.0950   -1.4380 hn        1 MOL      0.277788
     29 H9          6.7020    0.9700   -1.6320 h1        1 MOL      0.078026
     30 H10         5.9730   -1.3630   -2.2010 hc        1 MOL      0.024349
     31 H11         7.6630   -1.8730   -2.0960 hc        1 MOL      0.024349
     32 H12         8.2160   -0.5950   -4.0890 hc        1 MOL      0.004486
     33 H13         6.7250    0.2910   -4.0580 hc        1 MOL      0.004486
     34 H14         6.7820   -1.5350   -5.7740 hc        1 MOL      0.001174
     35 H15         5.5010   -1.8470   -4.7540 hc        1 MOL      0.001174
     36 H16         6.6670   -3.3950   -3.4670 hx        1 MOL      0.098117
     37 H17         8.2680   -2.9150   -4.1270 hx        1 MOL      0.098117
     38 H18         6.9650   -3.7560   -6.3040 hn        1 MOL      0.244188
     39 H19         7.6570   -4.8180   -5.3950 hn        1 MOL      0.244188
     40 H20         6.0800   -4.6600   -5.1650 hn        1 MOL      0.244188
     41 N4          5.3170    0.0530    0.1820 n         1 MOL     -0.677730
     42 C13         4.4670   -0.0600    1.3980 c3        1 MOL      0.180295
     43 C14         2.9400   -0.2130    1.0450 c         1 MOL      0.611235
     44 O6          2.4450    0.3590    0.1010 o         1 MOL     -0.608027
     45 C15         4.6590    1.1220    2.3350 c3        1 MOL      0.003154
     46 C16         5.5860    2.2460    1.9040 c         1 MOL      0.488137
     47 O7          6.7350    2.3650    2.3870 o         1 MOL     -0.628263
     48 O8          5.2420    3.1220    1.0930 o         1 MOL     -0.628263
     49 H21         4.9730    0.5210   -0.6440 hn        1 MOL      0.284742
     50 H22         4.7450   -0.9780    1.9150 h1        1 MOL      0.104598
     51 H23         5.0410    0.7270    3.2800 hc        1 MOL      0.015779
     52 H24         3.6700    1.5060    2.5610 hc        1 MOL      0.015779
     53 N5          2.1620   -0.8770    1.9040 n         1 MOL     -0.450042
     54 C17         2.5270   -1.5990    3.1060 c3        1 MOL     -0.257372
     55 C18         2.8830   -3.1070    2.8340 c         1 MOL      0.556230
     56 O9          3.3280   -3.3990    1.7240 o         1 MOL     -0.515363
     57 H25         1.1720   -0.9470    1.7330 hn        1 MOL      0.365075
     58 H26         1.6220   -1.4860    3.6950 h1        1 MOL      0.124436
     59 H27         3.3660   -1.1330    3.6080 h1        1 MOL      0.124436
     60 N6          2.7330   -4.0040    3.8460 n         1 MOL     -0.345034
     61 C19         3.1250   -5.4230    3.8480 c3        1 MOL      0.056739
     62 C20         2.7840   -6.1590    2.5250 c         1 MOL      0.422346
     63 O10         3.7030   -6.7160    1.8870 o         1 MOL     -0.538239
     64 C21         2.4180   -6.1060    5.0610 c3        1 MOL     -0.292375
     65 C22         2.8370   -5.4030    6.3820 c         1 MOL      0.727243
     66 O11         1.8650   -5.0980    7.1330 o         1 MOL     -0.661310
     67 O12         4.0150   -5.1230    6.6910 o         1 MOL     -0.661310
     68 H28         2.2590   -3.6610    4.6660 hn        1 MOL      0.249284
     69 H29         4.1770   -5.4860    4.1260 h1        1 MOL      0.085823
     70 H30         2.7080   -7.1560    5.0350 hc        1 MOL      0.058896
     71 H31         1.3370   -6.1200    4.9250 hc        1 MOL      0.058896
     72 N7          1.5920   -5.9800    2.0140 n         1 MOL     -0.230264
     73 C23         0.9980   -6.5440    0.7730 c3        1 MOL     -0.109219
     74 C24         0.7190   -5.6080   -0.4030 c         1 MOL      0.550963
     75 O13        -0.0660   -5.9920   -1.3150 o         1 MOL     -0.602005
     76 H32         1.0020   -5.4030    2.5900 hn        1 MOL      0.217023
     77 H33         0.0650   -7.0130    1.0810 h1        1 MOL      0.093492
     78 H34         1.7140   -7.2650    0.3820 h1        1 MOL      0.093492
     79 N8          1.2520   -4.3900   -0.3810 n         1 MOL     -0.349260
     80 C25         1.0860   -3.2570   -1.3530 c3        1 MOL      0.076202
     81 C26         0.2350   -2.1850   -0.6540 c         1 MOL      0.390877
     82 O14         0.0030   -2.3060    0.5490 o         1 MOL     -0.506768
     83 C27         2.4670   -2.7010   -1.8320 c3        1 MOL      0.520722
     84 C28         3.1860   -3.7110   -2.6600 c3        1 MOL     -0.451472
     85 O15         2.2790   -1.5440   -2.6250 oh        1 MOL     -0.646089
     86 H35         1.9140   -4.2030    0.3680 hn        1 MOL      0.211650
     87 H36         0.5510   -3.5420   -2.2580 h1        1 MOL      0.081375
     88 H37         3.1370   -2.4700   -1.0090 h1        1 MOL     -0.040550
     89 H38         3.0430   -0.9810   -2.4760 ho        1 MOL      0.387089
     90 H39         3.4210   -4.6650   -2.1900 hc        1 MOL      0.099225
     91 H40         2.6330   -3.8250   -3.5950 hc        1 MOL      0.099225
     92 H41         4.1510   -3.2680   -2.9330 hc        1 MOL      0.099225
     93 N9         -0.3780   -1.2380   -1.4260 n         1 MOL     -0.414988
     94 C29        -1.2050   -0.1270   -0.8230 c3        1 MOL     -0.262201
     95 C30        -2.6620   -0.6510   -0.4960 c         1 MOL      0.708052
     96 O16        -3.1820   -0.1090    0.4490 o         1 MOL     -0.550888
     97 C31        -1.1440    1.1060   -1.8380 c3        1 MOL      0.322646
     98 C32         0.1930    1.3420   -2.5400 c3        1 MOL     -0.098631
     99 C33        -1.6660    2.3910   -1.1130 c3        1 MOL     -0.288676
    100 C34         0.2180    2.4790   -3.5890 c3        1 MOL     -0.354292
    101 H42        -0.2420   -1.2360   -2.4200 hn        1 MOL      0.282481
    102 H43        -0.8200    0.2390    0.1250 h1        1 MOL      0.155725
    103 H44        -1.9400    0.9410   -2.5700 hc        1 MOL     -0.040572
    104 H45         0.6070    0.4240   -2.9700 hc        1 MOL      0.068755
    105 H46         0.8110    1.5540   -1.6620 hc        1 MOL      0.068755
    106 H47        -0.8780    2.7850   -0.4580 hc        1 MOL      0.072667
    107 H48        -1.9100    3.0830   -1.9270 hc        1 MOL      0.072667
    108 H49        -2.5190    2.1930   -0.4620 hc        1 MOL      0.072667
    109 H50         1.2310    2.5220   -3.9880 hc        1 MOL      0.093662
    110 H51        -0.5990    2.2920   -4.2860 hc        1 MOL      0.093662
    111 H52        -0.0440    3.4090   -3.0850 hc        1 MOL      0.093662
    112 N10        -3.2520   -1.6070   -1.2280 n         1 MOL     -0.544256
    113 C35        -4.5580   -2.2980   -0.9130 c3        1 MOL     -0.112741
    114 C36        -5.6440   -2.1390   -2.0110 c         1 MOL      0.680165
    115 O17        -5.3050   -2.3200   -3.1970 o         1 MOL     -0.539119
    116 C37        -4.2690   -3.8000   -0.5840 c3        1 MOL      0.348781
    117 C38        -3.2270   -3.9190    0.5700 c3        1 MOL     -0.288566
    118 O18        -5.4010   -4.3390    0.0410 oh        1 MOL     -0.693503
    119 H53        -2.8270   -1.9690   -2.0700 hn        1 MOL      0.286923
    120 H54        -4.9320   -1.8710    0.0170 h1        1 MOL      0.147257
    121 H55        -4.0860   -4.4370   -1.4520 h1        1 MOL      0.018236
    122 H56        -5.3020   -5.2940    0.0920 ho        1 MOL      0.423999
    123 H57        -2.2040   -4.0450    0.1950 hc        1 MOL      0.093195
    124 H58        -3.2890   -3.0040    1.1490 hc        1 MOL      0.093195
    125 H59        -3.4190   -4.8370    1.1300 hc        1 MOL      0.093195
    126 N11        -6.8930   -1.9110   -1.6400 n         1 MOL     -0.646990
    127 C39        -8.0300   -1.9700   -2.5770 c3        1 MOL      0.009174
    128 C40        -8.7880   -0.6760   -2.7010 c         1 MOL      0.691648
    129 O19        -9.0310   -0.2380   -3.7800 o         1 MOL     -0.596227
    130 C41        -8.9760   -3.0830   -2.0930 c3        1 MOL      0.454451
    131 C42       -10.2400   -3.4490   -2.8600 c3        1 MOL     -0.436354
    132 O20        -9.3440   -2.7590   -0.7490 oh        1 MOL     -0.654131
    133 H60        -7.0630   -1.6410   -0.6890 hn        1 MOL      0.339959
    134 H61        -7.6080   -2.2530   -3.5400 h1        1 MOL      0.080661
    135 H62        -8.4620   -4.0460   -2.0100 h1        1 MOL     -0.014957
    136 H63        -8.7270   -3.2120   -0.1650 ho        1 MOL      0.398284
    137 H64       -11.0050   -2.7450   -2.5370 hc        1 MOL      0.116690
    138 H65        -9.9290   -3.4550   -3.8990 hc        1 MOL      0.116690
    139 H66       -10.5470   -4.4190   -2.4660 hc        1 MOL      0.116690
    140 N12        -9.1570   -0.0450   -1.6260 n         1 MOL     -0.393048
    141 C43        -9.8950    1.2090   -1.4470 c3        1 MOL      0.011859
    142 C44        -9.4980    1.9150   -0.1460 c         1 MOL      0.618993
    143 O21        -9.1350    1.2820    0.8000 o         1 MOL     -0.494285
    144 C45       -11.4600    1.0840   -1.5580 c3        1 MOL     -0.315752
    145 C46       -12.0260    0.1990   -0.4410 c3        1 MOL      0.075497
    146 C47       -13.6000    0.1620   -0.4830 c3        1 MOL     -0.110553
    147 C48       -14.2670   -1.0480    0.3080 c3        1 MOL      0.021957
    148 N13       -13.7210   -0.8260    1.6870 n4        1 MOL     -0.372527
    149 H67        -8.8060   -0.4870   -0.7890 hn        1 MOL      0.181158
    150 H68        -9.5180    1.8250   -2.2580 h1        1 MOL      0.096084
    151 H69       -11.7470    0.6040   -2.4960 hc        1 MOL      0.120683
    152 H70       -11.8470    2.0910   -1.5050 hc        1 MOL      0.120683
    153 H71       -11.6660    0.4640    0.5500 hc        1 MOL      0.025587
    154 H72       -11.6940   -0.8370   -0.5420 hc        1 MOL      0.025587
    155 H73       -13.9880    0.0070   -1.4870 hc        1 MOL      0.063238
    156 H74       -14.0250    1.0980   -0.1580 hc        1 MOL      0.063238
    157 H75       -14.0230   -2.0470   -0.0510 hx        1 MOL      0.099063
    158 H76       -15.3550   -1.0710    0.2220 hx        1 MOL      0.099063
    159 H77       -13.8590    0.1430    1.9530 hn        1 MOL      0.301651
    160 H78       -14.1680   -1.3080    2.4600 hn        1 MOL      0.301651
    161 H79       -12.7760   -1.1650    1.6830 hn        1 MOL      0.301651
    162 N14        -9.5930    3.2240   -0.2090 n         1 MOL     -0.588592
    163 C49        -9.4090    3.9660    1.0190 c3        1 MOL      0.279776
    164 C50        -7.9200    3.8580    1.6150 c         1 MOL      0.368931
    165 O22        -7.8050    3.3220    2.7020 o         1 MOL     -0.509634
    166 C51        -9.9070    5.4250    0.9760 c3        1 MOL     -0.193384
    167 C52        -9.9110    6.0980    2.3570 c3        1 MOL     -0.302529
    168 C53       -10.6800    7.4590    2.2560 c         1 MOL      0.753576
    169 O23       -10.0590    8.4440    1.8740 o         1 MOL     -0.659605
    170 O24       -11.8720    7.6290    2.6010 o         1 MOL     -0.659605
    171 H80        -9.9400    3.7310   -1.0110 hn        1 MOL      0.298602
    172 H81        -9.9510    3.4760    1.8210 h1        1 MOL      0.020228
    173 H82       -10.9360    5.5100    0.6150 hc        1 MOL      0.075293
    174 H83        -9.3340    6.0630    0.3110 hc        1 MOL      0.075293
    175 H84        -8.8640    6.3160    2.5910 hc        1 MOL      0.083446
    176 H85       -10.4570    5.4940    3.0720 hc        1 MOL      0.083446
    177 N15        -6.8640    4.3020    0.9110 n         1 MOL     -0.325782
    178 C54        -6.7210    5.0010   -0.3630 c3        1 MOL      0.079975
    179 H86        -6.5930    4.2740   -1.1640 h1        1 MOL      0.021440
    180 H87        -7.6150    5.5960   -0.5530 h1        1 MOL      0.021440
    181 H88        -5.8500    5.6550   -0.3240 h1        1 MOL      0.021440
    182 H89        -5.9580    3.9640    1.2210 hn        1 MOL      0.280237
    183 Ca1         7.4000    4.6010    0.8020 Ca        1 MOL      1.744856
    184 O25         5.5420    6.1620    1.8980 oh        1 MOL     -0.865006
    185 H90         5.4090    7.0290    2.2940 ho        1 MOL      0.425478
    186 H91         4.6950    5.7230    2.0080 ho        1 MOL      0.425478
    187 O26         8.0340    5.1460    3.4390 oh        1 MOL     -0.865006
    188 H92         7.3310    5.0000    4.0650 ho        1 MOL      0.425478
    189 H93         8.6770    5.6660    3.9270 ho        1 MOL      0.425478
    190 O27         5.5440    4.7860   -1.0140 oh        1 MOL     -0.865006
    191 H94         5.9990    4.9760   -1.8390 ho        1 MOL      0.425478
    192 H95         4.8050    4.2350   -1.2650 ho        1 MOL      0.425478
@<TRIPOS>BOND
     1    1    2 1   
     2    1    4 1   
     3    1    5 1   
     4    1    6 1   
     5    2    3 2   
     6    2    7 1   
     7    7    8 1   
     8    7   15 1   
     9    8    9 1   
    10    8   11 1   
    11    8   16 1   
    12    9   10 2   
    13    9   19 1   
    14   11   12 1   
    15   11   17 1   
    16   11   18 1   
    17   12   13 1   
    18   12   14 1   
    19   19   20 1   
    20   19   28 1   
    21   20   21 1   
    22   20   23 1   
    23   20   29 1   
    24   21   22 2   
    25   21   41 1   
    26   23   24 1   
    27   23   30 1   
    28   23   31 1   
    29   24   25 1   
    30   24   32 1   
    31   24   33 1   
    32   25   26 1   
    33   25   34 1   
    34   25   35 1   
    35   26   27 1   
    36   26   36 1   
    37   26   37 1   
    38   27   38 1   
    39   27   39 1   
    40   27   40 1   
    41   41   42 1   
    42   41   49 1   
    43   42   43 1   
    44   42   45 1   
    45   42   50 1   
    46   43   44 2   
    47   43   53 1   
    48   45   46 1   
    49   45   51 1   
    50   45   52 1   
    51   46   47 1   
    52   46   48 1   
    53   53   54 1   
    54   53   57 1   
    55   54   55 1   
    56   54   58 1   
    57   54   59 1   
    58   55   56 2   
    59   55   60 1   
    60   60   61 1   
    61   60   68 1   
    62   61   62 1   
    63   61   64 1   
    64   61   69 1   
    65   62   63 2   
    66   62   72 1   
    67   64   65 1   
    68   64   70 1   
    69   64   71 1   
    70   65   66 1   
    71   65   67 1   
    72   72   73 1   
    73   72   76 1   
    74   73   74 1   
    75   73   77 1   
    76   73   78 1   
    77   74   75 2   
    78   74   79 1   
    79   79   80 1   
    80   79   86 1   
    81   80   81 1   
    82   80   83 1   
    83   80   87 1   
    84   81   82 2   
    85   81   93 1   
    86   83   84 1   
    87   83   85 1   
    88   83   88 1   
    89   84   90 1   
    90   84   91 1   
    91   84   92 1   
    92   85   89 1   
    93   93   94 1   
    94   93  101 1   
    95   94   95 1   
    96   94   97 1   
    97   94  102 1   
    98   95   96 2   
    99   95  112 1   
   100   97   98 1   
   101   97   99 1   
   102   97  103 1   
   103   98  100 1   
   104   98  104 1   
   105   98  105 1   
   106   99  106 1   
   107   99  107 1   
   108   99  108 1   
   109  100  109 1   
   110  100  110 1   
   111  100  111 1   
   112  112  113 1   
   113  112  119 1   
   114  113  114 1   
   115  113  116 1   
   116  113  120 1   
   117  114  115 2   
   118  114  126 1   
   119  116  117 1   
   120  116  118 1   
   121  116  121 1   
   122  117  123 1   
   123  117  124 1   
   124  117  125 1   
   125  118  122 1   
   126  126  127 1   
   127  126  133 1   
   128  127  128 1   
   129  127  130 1   
   130  127  134 1   
   131  128  129 2   
   132  128  140 1   
   133  130  131 1   
   134  130  132 1   
   135  130  135 1   
   136  131  137 1   
   137  131  138 1   
   138  131  139 1   
   139  132  136 1   
   140  140  141 1   
   141  140  149 1   
   142  141  142 1   
   143  141  144 1   
   144  141  150 1   
   145  142  143 2   
   146  142  162 1   
   147  144  145 1   
   148  144  151 1   
   149  144  152 1   
   150  145  146 1   
   151  145  153 1   
   152  145  154 1   
   153  146  147 1   
   154  146  155 1   
   155  146  156 1   
   156  147  148 1   
   157  147  157 1   
   158  147  158 1   
   159  148  159 1   
   160  148  160 1   
   161  148  161 1   
   162  162  163 1   
   163  162  171 1   
   164  163  164 1   
   165  163  166 1   
   166  163  172 1   
   167  164  165 2   
   168  164  177 1   
   169  166  167 1   
   170  166  173 1   
   171  166  174 1   
   172  167  168 1   
   173  167  175 1   
   174  167  176 1   
   175  168  169 1   
   176  168  170 1   
   177  177  178 1   
   178  177  182 1   
   179  178  179 1   
   180  178  180 1   
   181  178  181 1   
   182  184  185 1   
   183  184  186 1   
   184  187  188 1   
   185  187  189 1   
   186  190  191 1   
   187  190  192 1   
@<TRIPOS>SUBSTRUCTURE
     1 MOL         1 TEMP              0 ****  ****    0 ROOT
