@<TRIPOS>MOLECULE
MOL
  192   187     1     0     0
SMALL
resp


@<TRIPOS>ATOM
      1 C1         -9.3980    0.5720   -2.4700 c3        1 MOL     -0.609464
      2 C2         -8.3310    0.3020   -1.4200 c         1 MOL      0.806075
      3 O1         -7.1110    0.2590   -1.6460 o         1 MOL     -0.681611
      4 H1         -9.7120   -0.3710   -2.9190 hc        1 MOL      0.154140
      5 H2        -10.2550    1.0540   -2.0020 hc        1 MOL      0.154140
      6 H3         -8.9910    1.2240   -3.2430 hc        1 MOL      0.154140
      7 N1         -8.8020   -0.0360   -0.2040 n         1 MOL     -0.525166
      8 C3         -7.9700   -0.3660    0.9850 c3        1 MOL     -0.095094
      9 C4         -7.2520   -1.7560    1.1200 c         1 MOL      0.455813
     10 O2         -7.1960   -2.2570    2.2470 o         1 MOL     -0.399463
     11 C5         -8.8230   -0.0400    2.2440 c3        1 MOL     -0.112131
     12 C6        -10.1320   -0.8700    2.4340 c         1 MOL      0.645725
     13 O3        -10.3280   -1.8870    1.7130 o         1 MOL     -0.635847
     14 O4        -10.7720   -0.6770    3.5130 o         1 MOL     -0.635847
     15 H4         -9.7980    0.0740   -0.0980 hn        1 MOL      0.276248
     16 H5         -7.1490    0.3450    0.9190 h1        1 MOL      0.125532
     17 H6         -9.2150    0.9740    2.1940 hc        1 MOL      0.044815
     18 H7         -8.1660   -0.1440    3.1100 hc        1 MOL      0.044815
     19 N2         -6.8140   -2.2830    0.0160 n         1 MOL     -0.417437
     20 C7         -6.1630   -3.5860   -0.0930 c3        1 MOL      0.277359
     21 C8         -4.7880   -3.6450    0.5530 c         1 MOL      0.213015
     22 O5         -4.5480   -4.4230    1.4780 o         1 MOL     -0.478212
     23 C9         -6.1930   -4.0200   -1.5710 c3        1 MOL     -0.143309
     24 C10        -7.5360   -4.3630   -2.1990 c3        1 MOL      0.056500
     25 C11        -7.4030   -4.3690   -3.7600 c3        1 MOL     -0.005295
     26 C12        -8.6830   -4.0790   -4.4900 c3        1 MOL      0.122343
     27 N3         -9.7170   -5.1190   -4.4460 n4        1 MOL     -0.332386
     28 H8         -6.9840   -1.7050   -0.7960 hn        1 MOL      0.283837
     29 H9         -6.6950   -4.2900    0.5450 h1        1 MOL      0.047415
     30 H10        -5.4750   -4.8040   -1.8010 hc        1 MOL      0.043152
     31 H11        -5.7870   -3.1640   -2.1140 hc        1 MOL      0.043152
     32 H12        -8.2320   -3.5580   -1.9630 hc        1 MOL     -0.001699
     33 H13        -7.9290   -5.2970   -1.7910 hc        1 MOL     -0.001699
     34 H14        -6.9210   -5.2610   -4.1660 hc        1 MOL      0.027682
     35 H15        -6.8260   -3.4930   -4.0620 hc        1 MOL      0.027682
     36 H16        -8.4240   -3.9260   -5.5410 hx        1 MOL      0.038431
     37 H17        -9.1380   -3.1600   -4.1140 hx        1 MOL      0.038431
     38 H18        -9.3790   -6.0330   -4.6980 hn        1 MOL      0.282467
     39 H19       -10.1260   -5.2290   -3.5370 hn        1 MOL      0.282467
     40 H20       -10.4110   -4.7490   -5.0820 hn        1 MOL      0.282467
     41 N4         -3.8580   -2.6930    0.3050 n         1 MOL     -0.186970
     42 C13        -3.8290   -1.5010   -0.5760 c3        1 MOL      0.047587
     43 C14        -4.0000   -0.1300    0.1850 c         1 MOL      0.309097
     44 O6         -4.2180   -0.1640    1.3530 o         1 MOL     -0.415148
     45 C15        -2.5630   -1.5740   -1.4710 c3        1 MOL     -0.382203
     46 C16        -1.3130   -1.8250   -0.6610 c         1 MOL      0.494364
     47 O7         -1.0550   -1.0310    0.2640 o         1 MOL     -0.573823
     48 O8         -0.6080   -2.8140   -0.8960 o         1 MOL     -0.573823
     49 H21        -3.0040   -2.8760    0.8100 hn        1 MOL      0.320330
     50 H22        -4.6460   -1.6450   -1.2810 h1        1 MOL      0.097118
     51 H23        -2.4920   -0.6430   -2.0430 hc        1 MOL      0.084210
     52 H24        -2.6490   -2.3720   -2.2070 hc        1 MOL      0.084210
     53 N5         -3.8880    1.0130   -0.5340 n         1 MOL     -0.183885
     54 C17        -3.9990    2.3230   -0.0290 c3        1 MOL     -0.061587
     55 C18        -2.8110    2.8290    0.7760 c         1 MOL      0.739363
     56 O9         -1.7980    2.1700    0.8990 o         1 MOL     -0.649607
     57 H25        -3.8350    0.9330   -1.5500 hn        1 MOL      0.226090
     58 H26        -4.9220    2.4620    0.5260 h1        1 MOL      0.048564
     59 H27        -4.0330    3.0290   -0.8690 h1        1 MOL      0.048564
     60 N6         -2.9390    4.0650    1.3770 n         1 MOL     -0.669884
     61 C19        -1.8190    4.6190    2.1580 c3        1 MOL      0.390042
     62 C20        -1.7990    6.1630    2.0230 c         1 MOL      0.341710
     63 O10        -2.7890    6.8670    1.7820 o         1 MOL     -0.503913
     64 C21        -1.9500    4.0740    3.5920 c3        1 MOL     -0.122090
     65 C22        -1.0390    2.8530    3.8330 c         1 MOL      0.573016
     66 O11        -1.3610    2.1210    4.7650 o         1 MOL     -0.621159
     67 O12        -0.0230    2.6090    3.1210 o         1 MOL     -0.621159
     68 H28        -3.8420    4.5110    1.3650 hn        1 MOL      0.300991
     69 H29        -0.8950    4.2660    1.7070 h1        1 MOL      0.092633
     70 H30        -2.9890    3.7920    3.8070 hc        1 MOL      0.049901
     71 H31        -1.6630    4.8370    4.3110 hc        1 MOL      0.049901
     72 N7         -0.6950    6.8950    2.3580 n         1 MOL     -0.454194
     73 C23         0.7030    6.4640    2.4500 c3        1 MOL      0.026793
     74 C24         1.3120    6.2290    1.0550 c         1 MOL      0.549840
     75 O13         0.6830    6.6870    0.0240 o         1 MOL     -0.495641
     76 H32        -0.7780    7.8930    2.2280 hn        1 MOL      0.327954
     77 H33         0.8240    5.5650    3.0630 h1        1 MOL      0.030070
     78 H34         1.2500    7.3330    2.7920 h1        1 MOL      0.030070
     79 N8          2.4280    5.5140    1.0170 n         1 MOL     -0.588201
     80 C25         2.9090    4.8250   -0.2060 c3        1 MOL      0.015270
     81 C26         1.8060    3.8340   -0.6530 c         1 MOL      0.857008
     82 O14         1.2620    3.0650    0.1270 o         1 MOL     -0.817768
     83 C27         4.2580    4.1450    0.0130 c3        1 MOL      0.239448
     84 C28         4.8820    3.6330   -1.2600 c3        1 MOL     -0.128763
     85 O15         4.2020    3.1640    1.0270 oh        1 MOL     -0.521134
     86 H35         2.9020    5.2940    1.8800 hn        1 MOL      0.311293
     87 H36         3.0280    5.5770   -0.9860 h1        1 MOL      0.050206
     88 H37         4.9740    4.8890    0.3680 h1        1 MOL      0.037908
     89 H38         4.1420    3.5910    1.8860 ho        1 MOL      0.358921
     90 H39         4.8020    4.3300   -2.1020 hc        1 MOL      0.043379
     91 H40         5.9280    3.3640   -1.1210 hc        1 MOL      0.043379
     92 H41         4.2700    2.7790   -1.5540 hc        1 MOL      0.043379
     93 N9          1.5580    3.8150   -1.9820 n         1 MOL     -0.544516
     94 C29         0.6430    2.8570   -2.6510 c3        1 MOL     -0.067905
     95 C30         1.0000    1.3200   -2.4230 c         1 MOL      0.800247
     96 O16         0.6230    0.7620   -1.3990 o         1 MOL     -0.692115
     97 C31        -0.8190    3.3010   -2.4470 c3        1 MOL      0.088473
     98 C32        -1.1460    4.7760   -2.8090 c3        1 MOL      0.013429
     99 C33        -1.7990    2.4270   -3.2910 c3        1 MOL     -0.620554
    100 C34        -2.3480    5.1930   -1.9900 c3        1 MOL     -0.038179
    101 H42         2.0580    4.4430   -2.5920 hn        1 MOL      0.307234
    102 H43         0.9090    2.9390   -3.7070 h1        1 MOL      0.044392
    103 H44        -1.0680    3.2050   -1.3890 hc        1 MOL      0.079553
    104 H45        -1.4450    4.7970   -3.8570 hc        1 MOL     -0.004213
    105 H46        -0.3140    5.4380   -2.5620 hc        1 MOL     -0.004213
    106 H47        -1.3350    2.3300   -4.2790 hc        1 MOL      0.168993
    107 H48        -1.8300    1.4590   -2.7900 hc        1 MOL      0.168993
    108 H49        -2.7680    2.9190   -3.3670 hc        1 MOL      0.168993
    109 H50        -1.9770    5.2420   -0.9600 hc        1 MOL      0.016869
    110 H51        -2.6190    6.2040   -2.2830 hc        1 MOL      0.016869
    111 H52        -3.2070    4.5170   -2.0710 hc        1 MOL      0.016869
    112 N10         1.8920    0.7060   -3.1690 n         1 MOL     -0.484979
    113 C35         2.4320   -0.6780   -2.8850 c3        1 MOL     -0.073650
    114 C36         3.8940   -0.8310   -3.0730 c         1 MOL      0.494280
    115 O17         4.3830   -1.9370   -3.3400 o         1 MOL     -0.543617
    116 C37         1.6520   -1.6520   -3.7700 c3        1 MOL      0.279773
    117 C38         1.7530   -1.4550   -5.2460 c3        1 MOL     -0.259220
    118 O18         0.2640   -1.5580   -3.3470 oh        1 MOL     -0.520537
    119 H53         2.3770    1.2520   -3.8720 hn        1 MOL      0.272232
    120 H54         2.2920   -0.9370   -1.8410 h1        1 MOL      0.165259
    121 H55         1.9130   -2.6790   -3.5290 h1        1 MOL      0.050240
    122 H56         0.1410   -2.1930   -2.6430 ho        1 MOL      0.327984
    123 H57         2.7610   -1.2510   -5.6110 hc        1 MOL      0.067671
    124 H58         1.4690   -2.3730   -5.7650 hc        1 MOL      0.067671
    125 H59         1.1240   -0.6560   -5.6320 hc        1 MOL      0.067671
    126 N11         4.7520    0.2240   -2.8980 n         1 MOL     -0.181541
    127 C39         6.2170    0.0590   -2.8910 c3        1 MOL     -0.111443
    128 C40         6.5370   -0.4890   -1.4320 c         1 MOL      0.526889
    129 O19         6.8240    0.3390   -0.5510 o         1 MOL     -0.528475
    130 C41         6.8620    1.3850   -3.2680 c3        1 MOL      0.587145
    131 C42         8.3790    1.2490   -3.3920 c3        1 MOL     -0.441163
    132 O20         6.4480    1.8760   -4.5520 oh        1 MOL     -0.687111
    133 H60         4.4180    1.1690   -2.7670 hn        1 MOL      0.088402
    134 H61         6.5000   -0.6270   -3.6960 h1        1 MOL      0.095254
    135 H62         6.6000    2.1180   -2.4990 h1        1 MOL     -0.075407
    136 H63         6.7970    2.7470   -4.7640 ho        1 MOL      0.414195
    137 H64         8.8320    0.5930   -2.6400 hc        1 MOL      0.105255
    138 H65         8.5370    0.8310   -4.3790 hc        1 MOL      0.105255
    139 H66         8.7870    2.2500   -3.2390 hc        1 MOL      0.105255
    140 N12         6.4730   -1.8400   -1.2500 n         1 MOL     -0.621099
    141 C43         6.4750   -2.6710   -0.0380 c3        1 MOL      0.342769
    142 C44         5.2980   -2.3490    0.8630 c         1 MOL      0.416111
    143 O21         4.8640   -1.2510    0.8120 o         1 MOL     -0.441286
    144 C45         7.8010   -2.5570    0.6930 c3        1 MOL     -0.746927
    145 C46         9.0340   -2.9600   -0.1380 c3        1 MOL      0.181421
    146 C47        10.3130   -2.9000    0.6460 c3        1 MOL     -0.002453
    147 C48        11.4640   -3.0860   -0.3800 c3        1 MOL      0.063075
    148 N13        12.7540   -3.3900    0.3600 n4        1 MOL     -0.256717
    149 H67         6.0810   -2.2500   -2.0940 hn        1 MOL      0.306102
    150 H68         6.3380   -3.7180   -0.3320 h1        1 MOL      0.020892
    151 H69         7.6460   -3.0310    1.6620 hc        1 MOL      0.219708
    152 H70         7.8850   -1.5040    0.9510 hc        1 MOL      0.219708
    153 H71         9.0920   -2.2540   -0.9740 hc        1 MOL      0.023137
    154 H72         8.9280   -3.9120   -0.6680 hc        1 MOL      0.023137
    155 H73        10.3100   -3.8000    1.2660 hc        1 MOL      0.036423
    156 H74        10.3420   -1.9290    1.1430 hc        1 MOL      0.036423
    157 H75        11.5630   -2.1550   -0.9390 hx        1 MOL      0.052144
    158 H76        11.2120   -3.8780   -1.0930 hx        1 MOL      0.052144
    159 H77        13.4700   -3.5430   -0.3350 hn        1 MOL      0.227405
    160 H78        12.9300   -2.6780    1.0460 hn        1 MOL      0.227405
    161 H79        12.6450   -4.2830    0.8250 hn        1 MOL      0.227405
    162 N14         4.7510   -3.2920    1.5510 n         1 MOL     -0.278897
    163 C49         3.5710   -2.8940    2.4180 c3        1 MOL      0.055153
    164 C50         2.2960   -2.5760    1.5270 c         1 MOL      0.555967
    165 O22         1.7230   -1.5500    1.7750 o         1 MOL     -0.666556
    166 C51         3.2970   -3.9910    3.4230 c3        1 MOL      0.065617
    167 C52         4.3180   -4.0300    4.5720 c3        1 MOL     -0.213576
    168 C53         4.2330   -5.3350    5.3230 c         1 MOL      0.668504
    169 O23         4.6350   -6.4100    4.7940 o         1 MOL     -0.637618
    170 O24         3.7670   -5.3000    6.5030 o         1 MOL     -0.637618
    171 H80         5.0810   -4.2530    1.5390 hn        1 MOL      0.251336
    172 H81         3.7010   -2.0020    3.0400 h1        1 MOL      0.097268
    173 H82         3.3610   -4.9610    2.9300 hc        1 MOL      0.027278
    174 H83         2.3010   -3.8460    3.8280 hc        1 MOL      0.027278
    175 H84         4.1350   -3.1410    5.1760 hc        1 MOL      0.016547
    176 H85         5.3180   -3.8930    4.1470 hc        1 MOL      0.016547
    177 N15         1.7190   -3.3850    0.6340 n         1 MOL     -0.427307
    178 C54         2.2020   -4.6750    0.0510 c3        1 MOL     -0.009816
    179 H86         3.2570   -4.5840   -0.2070 h1        1 MOL      0.027470
    180 H87         2.0740   -5.4740    0.7820 h1        1 MOL      0.027470
    181 H88         1.6280   -4.9060   -0.8460 h1        1 MOL      0.027470
    182 H89         0.8200   -3.0670    0.3140 hn        1 MOL      0.347885
    183 Ca1         0.4280    0.7950    1.2540 Ca        1 MOL      1.848923
    184 O25        -1.2590   -0.1490    3.2330 oh        1 MOL     -0.862538
    185 H90        -1.4130    0.5720    3.8560 ho        1 MOL      0.402335
    186 H91        -2.0910   -0.6030    3.1840 ho        1 MOL      0.402335
    187 O26         3.0060    0.5600    0.6210 oh        1 MOL     -0.862538
    188 H92         3.4660    1.3990    0.6230 ho        1 MOL      0.402335
    189 H93         3.6950   -0.0860    0.4680 ho        1 MOL      0.402335
    190 O27         2.3940    1.8800    3.1640 oh        1 MOL     -0.862538
    191 H94         3.1130    2.3160    3.6150 ho        1 MOL      0.402335
    192 H95         1.6260    2.4200    3.3570 ho        1 MOL      0.402335
@<TRIPOS>BOND
     1    1    2 1   
     2    1    4 1   
     3    1    5 1   
     4    1    6 1   
     5    2    3 2   
     6    2    7 1   
     7    7    8 1   
     8    7   15 1   
     9    8    9 1   
    10    8   11 1   
    11    8   16 1   
    12    9   10 2   
    13    9   19 1   
    14   11   12 1   
    15   11   17 1   
    16   11   18 1   
    17   12   13 1   
    18   12   14 1   
    19   19   20 1   
    20   19   28 1   
    21   20   21 1   
    22   20   23 1   
    23   20   29 1   
    24   21   22 2   
    25   21   41 1   
    26   23   24 1   
    27   23   30 1   
    28   23   31 1   
    29   24   25 1   
    30   24   32 1   
    31   24   33 1   
    32   25   26 1   
    33   25   34 1   
    34   25   35 1   
    35   26   27 1   
    36   26   36 1   
    37   26   37 1   
    38   27   38 1   
    39   27   39 1   
    40   27   40 1   
    41   41   42 1   
    42   41   49 1   
    43   42   43 1   
    44   42   45 1   
    45   42   50 1   
    46   43   44 2   
    47   43   53 1   
    48   45   46 1   
    49   45   51 1   
    50   45   52 1   
    51   46   47 1   
    52   46   48 1   
    53   53   54 1   
    54   53   57 1   
    55   54   55 1   
    56   54   58 1   
    57   54   59 1   
    58   55   56 2   
    59   55   60 1   
    60   60   61 1   
    61   60   68 1   
    62   61   62 1   
    63   61   64 1   
    64   61   69 1   
    65   62   63 2   
    66   62   72 1   
    67   64   65 1   
    68   64   70 1   
    69   64   71 1   
    70   65   66 1   
    71   65   67 1   
    72   72   73 1   
    73   72   76 1   
    74   73   74 1   
    75   73   77 1   
    76   73   78 1   
    77   74   75 2   
    78   74   79 1   
    79   79   80 1   
    80   79   86 1   
    81   80   81 1   
    82   80   83 1   
    83   80   87 1   
    84   81   82 2   
    85   81   93 1   
    86   83   84 1   
    87   83   85 1   
    88   83   88 1   
    89   84   90 1   
    90   84   91 1   
    91   84   92 1   
    92   85   89 1   
    93   93   94 1   
    94   93  101 1   
    95   94   95 1   
    96   94   97 1   
    97   94  102 1   
    98   95   96 2   
    99   95  112 1   
   100   97   98 1   
   101   97   99 1   
   102   97  103 1   
   103   98  100 1   
   104   98  104 1   
   105   98  105 1   
   106   99  106 1   
   107   99  107 1   
   108   99  108 1   
   109  100  109 1   
   110  100  110 1   
   111  100  111 1   
   112  112  113 1   
   113  112  119 1   
   114  113  114 1   
   115  113  116 1   
   116  113  120 1   
   117  114  115 2   
   118  114  126 1   
   119  116  117 1   
   120  116  118 1   
   121  116  121 1   
   122  117  123 1   
   123  117  124 1   
   124  117  125 1   
   125  118  122 1   
   126  126  127 1   
   127  126  133 1   
   128  127  128 1   
   129  127  130 1   
   130  127  134 1   
   131  128  129 2   
   132  128  140 1   
   133  130  131 1   
   134  130  132 1   
   135  130  135 1   
   136  131  137 1   
   137  131  138 1   
   138  131  139 1   
   139  132  136 1   
   140  140  141 1   
   141  140  149 1   
   142  141  142 1   
   143  141  144 1   
   144  141  150 1   
   145  142  143 2   
   146  142  162 1   
   147  144  145 1   
   148  144  151 1   
   149  144  152 1   
   150  145  146 1   
   151  145  153 1   
   152  145  154 1   
   153  146  147 1   
   154  146  155 1   
   155  146  156 1   
   156  147  148 1   
   157  147  157 1   
   158  147  158 1   
   159  148  159 1   
   160  148  160 1   
   161  148  161 1   
   162  162  163 1   
   163  162  171 1   
   164  163  164 1   
   165  163  166 1   
   166  163  172 1   
   167  164  165 2   
   168  164  177 1   
   169  166  167 1   
   170  166  173 1   
   171  166  174 1   
   172  167  168 1   
   173  167  175 1   
   174  167  176 1   
   175  168  169 1   
   176  168  170 1   
   177  177  178 1   
   178  177  182 1   
   179  178  179 1   
   180  178  180 1   
   181  178  181 1   
   182  184  185 1   
   183  184  186 1   
   184  187  188 1   
   185  187  189 1   
   186  190  191 1   
   187  190  192 1   
@<TRIPOS>SUBSTRUCTURE
     1 MOL         1 TEMP              0 ****  ****    0 ROOT
