@<TRIPOS>MOLECULE
MOL
  185   180     1     0     0
SMALL
resp


@<TRIPOS>ATOM
      1 C1         -6.1980    0.9780   -3.5650 c3        1 MOL     -0.383633
      2 C2         -6.8580    1.0550   -2.1510 c         1 MOL      0.564388
      3 O1         -6.2700    0.8200   -1.1430 o         1 MOL     -0.423689
      4 H1         -5.5350    1.8320   -3.7030 hc        1 MOL      0.100735
      5 H2         -5.6220    0.0560   -3.6480 hc        1 MOL      0.100735
      6 H3         -6.9730    0.9940   -4.3300 hc        1 MOL      0.100735
      7 N1         -8.1490    1.3960   -2.1300 n         1 MOL     -0.518987
      8 C3         -9.0360    1.4790   -0.9500 c3        1 MOL      0.174387
      9 C4         -8.8910    0.3950    0.2340 c         1 MOL      0.282858
     10 O2         -9.0440    0.6860    1.4640 o         1 MOL     -0.440563
     11 C5         -9.1220    2.9250   -0.4110 c3        1 MOL      0.045974
     12 C6         -7.9220    3.8300   -0.5810 c         1 MOL      0.663015
     13 O3         -7.1050    3.8840    0.4050 o         1 MOL     -0.669485
     14 O4         -7.7680    4.4750   -1.6480 o         1 MOL     -0.669485
     15 H4         -8.6550    1.3940   -3.0080 hn        1 MOL      0.300140
     16 H5        -10.0680    1.3130   -1.2210 h1        1 MOL      0.032096
     17 H6         -9.3190    2.9190    0.6630 hc        1 MOL     -0.032157
     18 H7         -9.9640    3.3690   -0.9400 hc        1 MOL     -0.032157
     19 N2         -8.3360   -0.8190   -0.0180 n         1 MOL     -0.372606
     20 C7         -8.0860   -1.9590    0.8230 c3        1 MOL      0.189318
     21 C8         -6.5920   -2.2590    1.0130 c         1 MOL      0.590761
     22 O5         -6.2110   -3.3880    1.3410 o         1 MOL     -0.621145
     23 C9         -8.9010   -3.0950    0.2590 c3        1 MOL     -0.129772
     24 C10       -10.3740   -3.0330    0.6730 c3        1 MOL     -0.005165
     25 C11       -11.1390   -4.1750    0.0440 c3        1 MOL     -0.167518
     26 C12       -11.3380   -3.9700   -1.4390 c3        1 MOL      0.159311
     27 N3        -12.1250   -5.0960   -2.0930 n4        1 MOL     -0.428872
     28 H8         -8.0680   -0.8720   -0.9970 hn        1 MOL      0.159226
     29 H9         -8.4440   -1.7360    1.8260 h1        1 MOL      0.067812
     30 H10        -8.4670   -4.0210    0.6280 hc        1 MOL      0.051243
     31 H11        -8.8950   -3.1150   -0.8230 hc        1 MOL      0.051243
     32 H12       -10.8230   -2.0670    0.4380 hc        1 MOL      0.048150
     33 H13       -10.3910   -3.1070    1.7630 hc        1 MOL      0.048150
     34 H14       -12.0780   -4.2580    0.5930 hc        1 MOL      0.075737
     35 H15       -10.5440   -5.0850    0.1640 hc        1 MOL      0.075737
     36 H16       -10.3310   -4.0160   -1.8580 hx        1 MOL      0.043731
     37 H17       -11.8350   -3.0420   -1.7130 hx        1 MOL      0.043731
     38 H18       -12.3680   -4.7780   -3.0240 hn        1 MOL      0.322172
     39 H19       -11.6410   -5.9750   -2.0990 hn        1 MOL      0.322172
     40 H20       -13.0480   -5.1020   -1.6650 hn        1 MOL      0.322172
     41 N4         -5.6870   -1.3300    0.6140 n         1 MOL     -0.562849
     42 C13        -4.1910   -1.6180    0.6450 c3        1 MOL      0.072109
     43 C14        -3.7060   -1.5780    2.1060 c         1 MOL      0.523377
     44 O6         -3.8320   -0.6010    2.8460 o         1 MOL     -0.501850
     45 C15        -3.4030   -0.5930   -0.1720 c3        1 MOL     -0.328080
     46 C16        -1.8940   -0.7940    0.0510 c         1 MOL      0.711827
     47 O7         -1.4400   -1.8540    0.4080 o         1 MOL     -0.704244
     48 O8         -1.0770    0.0710   -0.2380 o         1 MOL     -0.704244
     49 H21        -6.0150   -0.4530    0.2290 hn        1 MOL      0.385399
     50 H22        -3.9290   -2.6240    0.3290 h1        1 MOL      0.072385
     51 H23        -3.7070    0.3820    0.1950 hc        1 MOL      0.098381
     52 H24        -3.6620   -0.5490   -1.2240 hc        1 MOL      0.098381
     53 N5         -3.2080   -2.7070    2.5420 n         1 MOL     -0.144017
     54 C17        -2.7300   -3.0750    3.8670 c3        1 MOL     -0.316491
     55 C18        -1.5980   -2.2550    4.4730 c         1 MOL      0.673919
     56 O9         -1.3610   -2.3940    5.6590 o         1 MOL     -0.578174
     57 H25        -2.9920   -3.4220    1.8530 hn        1 MOL      0.248715
     58 H26        -2.4480   -4.1310    3.7610 h1        1 MOL      0.124917
     59 H27        -3.5330   -2.9840    4.5960 h1        1 MOL      0.124917
     60 N6         -0.9130   -1.3820    3.7290 n         1 MOL     -0.375020
     61 C19         0.1000   -0.4080    4.0410 c3        1 MOL      0.099012
     62 C20        -0.1630    0.9220    3.3980 c         1 MOL      0.408933
     63 O10         0.6730    1.7950    3.6230 o         1 MOL     -0.550176
     64 C21         1.4850   -1.0220    3.8970 c3        1 MOL     -0.302183
     65 C22         1.9760   -0.6950    2.5460 c         1 MOL      0.675793
     66 N7          2.9970    0.1440    2.4950 n         1 MOL     -0.631468
     67 O11         1.4630   -1.0830    1.5060 o         1 MOL     -0.735672
     68 H28        -1.1010   -1.4500    2.7450 hn        1 MOL      0.230569
     69 H29        -0.0850   -0.1950    5.0990 h1        1 MOL      0.093301
     70 H30         1.4500   -2.1090    4.0500 hc        1 MOL      0.112920
     71 H31         2.1750   -0.6990    4.6790 hc        1 MOL      0.112920
     72 H32         3.5460    0.2800    3.3400 hn        1 MOL      0.296515
     73 H33         3.4500    0.3620    1.6220 hn        1 MOL      0.296515
     74 N8         -1.3250    1.1450    2.7930 n         1 MOL     -0.019496
     75 C23        -1.7790    2.5560    2.3620 c3        1 MOL     -0.369039
     76 C24        -0.9620    3.3880    1.4120 c         1 MOL      0.620219
     77 O12        -0.8040    4.6340    1.5460 o         1 MOL     -0.539980
     78 H34        -1.9610    0.3660    2.7810 hn        1 MOL      0.028662
     79 H35        -1.7420    3.1390    3.2810 h1        1 MOL      0.169949
     80 H36        -2.7840    2.3990    1.9760 h1        1 MOL      0.169949
     81 N9         -0.2440    2.7430    0.4880 n         1 MOL     -0.428672
     82 C25         0.5690    3.3990   -0.5170 c3        1 MOL      0.127317
     83 C26         1.7740    2.4340   -0.8050 c         1 MOL      0.410362
     84 O13         1.6120    1.1850   -0.7500 o         1 MOL     -0.471238
     85 C27        -0.2780    3.6560   -1.8110 c3        1 MOL      0.158392
     86 C28        -1.6380    4.1870   -1.5910 ca        1 MOL      0.011411
     87 C29        -1.8060    5.5800   -1.4940 ca        1 MOL     -0.300838
     88 C30        -2.7270    3.3190   -1.4280 ca        1 MOL     -0.300838
     89 C31        -3.0320    6.0890   -1.0510 ca        1 MOL     -0.100328
     90 C32        -3.9970    3.8970   -1.0400 ca        1 MOL     -0.100328
     91 C33        -4.1370    5.2590   -0.8280 ca        1 MOL      0.301633
     92 O14        -5.3250    5.7700   -0.4750 oh        1 MOL     -0.534263
     93 H37        -0.3380    1.7390    0.4680 hn        1 MOL      0.283380
     94 H38         1.0430    4.2750   -0.0820 h1        1 MOL      0.045425
     95 H39        -0.2920    2.7320   -2.3790 hc        1 MOL     -0.061349
     96 H40         0.2870    4.3580   -2.4170 hc        1 MOL     -0.061349
     97 H41        -0.9880    6.2420   -1.6940 ha        1 MOL      0.150718
     98 H42        -2.6440    2.2610   -1.6290 ha        1 MOL      0.150718
     99 H43        -3.1730    7.1620   -1.0210 ha        1 MOL      0.105724
    100 H44        -4.8580    3.2460   -1.0440 ha        1 MOL      0.105724
    101 H45        -6.0060    5.0940   -0.4650 ho        1 MOL      0.418025
    102 N10         2.8880    2.9650   -1.2590 n         1 MOL     -0.449480
    103 C34         4.0900    2.1090   -1.4930 c3        1 MOL      0.108431
    104 C35         4.9810    1.8740   -0.2540 c         1 MOL      0.396151
    105 O15         5.0630    0.7800    0.3150 o         1 MOL     -0.338487
    106 C36         4.9680    2.5830   -2.7420 c3        1 MOL      0.003454
    107 C37         4.1030    2.8050   -3.9900 c3        1 MOL      0.218691
    108 C38         6.1950    1.7360   -2.9860 c3        1 MOL     -0.750687
    109 C39         3.1710    1.7040   -4.5360 c3        1 MOL     -0.252868
    110 H46         2.9170    3.9800   -1.1890 hn        1 MOL      0.287260
    111 H47         3.7880    1.0910   -1.7140 h1        1 MOL      0.004177
    112 H48         5.3200    3.5860   -2.4850 hc        1 MOL      0.018301
    113 H49         4.7120    3.1060   -4.8520 hc        1 MOL     -0.038582
    114 H50         3.4610    3.6720   -3.7930 hc        1 MOL     -0.038582
    115 H51         5.9490    0.7410   -3.3390 hc        1 MOL      0.210352
    116 H52         6.6490    2.2950   -3.8050 hc        1 MOL      0.210352
    117 H53         6.8260    1.7130   -2.0920 hc        1 MOL      0.210352
    118 H54         2.7400    2.0230   -5.4840 hc        1 MOL      0.080644
    119 H55         3.6520    0.7390   -4.6820 hc        1 MOL      0.080644
    120 H56         2.3880    1.4010   -3.8310 hc        1 MOL      0.080644
    121 N11         5.6480    2.9570    0.1510 n         1 MOL     -0.264618
    122 C40         6.2370    3.1510    1.4830 c3        1 MOL     -0.002349
    123 C41         7.3620    2.1380    1.7940 c         1 MOL      0.264126
    124 O16         7.3440    1.5390    2.8450 o         1 MOL     -0.426789
    125 C42         6.7690    4.5710    1.5950 c3        1 MOL      0.330417
    126 O17         5.8560    5.5900    1.3740 oh        1 MOL     -0.637954
    127 H57         5.5760    3.7910   -0.4250 hn        1 MOL      0.232558
    128 H58         5.4610    2.9920    2.2400 h1        1 MOL      0.124621
    129 H59         7.5460    4.6630    0.8400 h1        1 MOL     -0.019489
    130 H60         7.3300    4.7680    2.5110 h1        1 MOL     -0.019489
    131 H61         6.2970    6.4270    1.2270 ho        1 MOL      0.422943
    132 N12         8.3750    2.0130    0.9070 n         1 MOL     -0.439906
    133 C43         9.5170    1.1000    1.0970 c3        1 MOL      0.438183
    134 C44         9.1760   -0.4080    1.1020 c         1 MOL      0.375480
    135 O18         9.9810   -1.2070    1.6400 o         1 MOL     -0.515929
    136 C45        10.5310    1.5170    2.1320 c3        1 MOL     -0.543179
    137 H62         8.4070    2.6900    0.1520 hn        1 MOL      0.270989
    138 H63        10.0280    1.2520    0.1430 h1        1 MOL     -0.020929
    139 H64        10.0180    1.7710    3.0630 hc        1 MOL      0.150547
    140 H65        11.2020    0.6930    2.3740 hc        1 MOL      0.150547
    141 H66        11.1340    2.3480    1.7610 hc        1 MOL      0.150547
    142 N13         8.0520   -0.7960    0.5500 n         1 MOL     -0.438752
    143 C46         7.4770   -2.0720    0.8860 c3        1 MOL      0.305895
    144 C47         6.6710   -2.5250   -0.3800 c         1 MOL      0.345324
    145 O19         6.2140   -1.7150   -1.2220 o         1 MOL     -0.423092
    146 C48         6.4640   -1.9670    1.9780 c3        1 MOL     -0.342678
    147 H67         7.5320   -0.1520   -0.0320 hn        1 MOL      0.212811
    148 H68         8.2360   -2.7360    1.3180 h1        1 MOL      0.032194
    149 H69         5.9180   -2.9040    1.9950 hc        1 MOL      0.115253
    150 H70         7.0880   -1.7710    2.8470 hc        1 MOL      0.115253
    151 H71         5.8140   -1.1300    1.7140 hc        1 MOL      0.115253
    152 N14         6.5430   -3.8470   -0.5030 n         1 MOL     -0.514906
    153 C49         5.7680   -4.5310   -1.5980 c3        1 MOL     -0.019596
    154 C50         6.3270   -4.2470   -3.0260 c         1 MOL      0.412506
    155 O20         5.5380   -4.1280   -3.9370 o         1 MOL     -0.499503
    156 C51         4.2360   -4.3320   -1.4610 c3        1 MOL      0.180419
    157 C52         3.7490   -4.7200   -0.0910 c3        1 MOL     -0.332413
    158 C53         2.2270   -4.6560    0.0050 c         1 MOL      0.769885
    159 O21         1.6870   -3.5750   -0.1020 o         1 MOL     -0.690276
    160 O22         1.5730   -5.6930    0.1790 o         1 MOL     -0.690276
    161 H72         7.0510   -4.4490    0.1310 hn        1 MOL      0.329821
    162 H73         6.0530   -5.5820   -1.5570 h1        1 MOL      0.074805
    163 H74         3.7640   -4.9030   -2.2540 hc        1 MOL      0.005283
    164 H75         3.9700   -3.3060   -1.7220 hc        1 MOL      0.005283
    165 H76         4.2130   -4.1920    0.7490 hc        1 MOL      0.047260
    166 H77         3.9840   -5.7510    0.1660 hc        1 MOL      0.047260
    167 N15         7.6390   -3.9840   -3.1880 n         1 MOL     -0.318391
    168 C54         8.2520   -3.4820   -4.4000 c3        1 MOL      0.091398
    169 H78         8.5220   -2.4350   -4.2630 h1        1 MOL      0.025944
    170 H79         9.1470   -4.0620   -4.6230 h1        1 MOL      0.025944
    171 H80         7.5470   -3.5680   -5.2270 h1        1 MOL      0.025944
    172 H81         8.1470   -3.8670   -2.3220 hn        1 MOL      0.226502
    173 Ca1         0.8730   -1.3400   -1.0170 Ca        1 MOL      1.816338
    174 O23        -0.5680   -3.4070   -2.1180 oh        1 MOL     -0.866589
    175 H82        -1.0830   -2.9640   -2.7990 ho        1 MOL      0.413981
    176 H83        -0.3590   -4.2640   -2.4990 ho        1 MOL      0.413981
    177 O24        -0.2200    0.1560   -2.8620 oh        1 MOL     -0.866589
    178 H84        -0.1490    0.6200   -3.6960 ho        1 MOL      0.413981
    179 H85        -1.1250    0.3060   -2.5860 ho        1 MOL      0.413981
    180 O25         2.0440   -2.5700   -3.2190 oh        1 MOL     -0.866589
    181 H86         2.7060   -2.3830   -3.8910 ho        1 MOL      0.413981
    182 H87         1.9630   -3.5240   -3.2210 ho        1 MOL      0.413981
    183 O26         3.5170   -1.1260   -0.8800 oh        1 MOL     -0.866589
    184 H88         4.3260   -1.5880   -1.0890 ho        1 MOL      0.413981
    185 H89         3.7860   -0.4260   -0.2840 ho        1 MOL      0.413981
@<TRIPOS>BOND
     1    1    2 1   
     2    1    4 1   
     3    1    5 1   
     4    1    6 1   
     5    2    3 2   
     6    2    7 1   
     7    7    8 1   
     8    7   15 1   
     9    8    9 1   
    10    8   11 1   
    11    8   16 1   
    12    9   10 2   
    13    9   19 1   
    14   11   12 1   
    15   11   17 1   
    16   11   18 1   
    17   12   13 1   
    18   12   14 1   
    19   19   20 1   
    20   19   28 1   
    21   20   21 1   
    22   20   23 1   
    23   20   29 1   
    24   21   22 2   
    25   21   41 1   
    26   23   24 1   
    27   23   30 1   
    28   23   31 1   
    29   24   25 1   
    30   24   32 1   
    31   24   33 1   
    32   25   26 1   
    33   25   34 1   
    34   25   35 1   
    35   26   27 1   
    36   26   36 1   
    37   26   37 1   
    38   27   38 1   
    39   27   39 1   
    40   27   40 1   
    41   41   42 1   
    42   41   49 1   
    43   42   43 1   
    44   42   45 1   
    45   42   50 1   
    46   43   44 2   
    47   43   53 1   
    48   45   46 1   
    49   45   51 1   
    50   45   52 1   
    51   46   47 1   
    52   46   48 1   
    53   53   54 1   
    54   53   57 1   
    55   54   55 1   
    56   54   58 1   
    57   54   59 1   
    58   55   56 2   
    59   55   60 1   
    60   60   61 1   
    61   60   68 1   
    62   61   62 1   
    63   61   64 1   
    64   61   69 1   
    65   62   63 2   
    66   62   74 1   
    67   64   65 1   
    68   64   70 1   
    69   64   71 1   
    70   65   66 1   
    71   65   67 2   
    72   66   72 1   
    73   66   73 1   
    74   74   75 1   
    75   74   78 1   
    76   75   76 1   
    77   75   79 1   
    78   75   80 1   
    79   76   77 2   
    80   76   81 1   
    81   81   82 1   
    82   81   93 1   
    83   82   83 1   
    84   82   85 1   
    85   82   94 1   
    86   83   84 2   
    87   83  102 1   
    88   85   86 1   
    89   85   95 1   
    90   85   96 1   
    91   86   87 ar  
    92   86   88 ar  
    93   87   89 ar  
    94   87   97 1   
    95   88   90 ar  
    96   88   98 1   
    97   89   91 ar  
    98   89   99 1   
    99   90   91 ar  
   100   90  100 1   
   101   91   92 1   
   102   92  101 1   
   103  102  103 1   
   104  102  110 1   
   105  103  104 1   
   106  103  106 1   
   107  103  111 1   
   108  104  105 2   
   109  104  121 1   
   110  106  107 1   
   111  106  108 1   
   112  106  112 1   
   113  107  109 1   
   114  107  113 1   
   115  107  114 1   
   116  108  115 1   
   117  108  116 1   
   118  108  117 1   
   119  109  118 1   
   120  109  119 1   
   121  109  120 1   
   122  121  122 1   
   123  121  127 1   
   124  122  123 1   
   125  122  125 1   
   126  122  128 1   
   127  123  124 2   
   128  123  132 1   
   129  125  126 1   
   130  125  129 1   
   131  125  130 1   
   132  126  131 1   
   133  132  133 1   
   134  132  137 1   
   135  133  134 1   
   136  133  136 1   
   137  133  138 1   
   138  134  135 2   
   139  134  142 1   
   140  136  139 1   
   141  136  140 1   
   142  136  141 1   
   143  142  143 1   
   144  142  147 1   
   145  143  144 1   
   146  143  146 1   
   147  143  148 1   
   148  144  145 2   
   149  144  152 1   
   150  146  149 1   
   151  146  150 1   
   152  146  151 1   
   153  152  153 1   
   154  152  161 1   
   155  153  154 1   
   156  153  156 1   
   157  153  162 1   
   158  154  155 2   
   159  154  167 1   
   160  156  157 1   
   161  156  163 1   
   162  156  164 1   
   163  157  158 1   
   164  157  165 1   
   165  157  166 1   
   166  158  159 1   
   167  158  160 1   
   168  167  168 1   
   169  167  172 1   
   170  168  169 1   
   171  168  170 1   
   172  168  171 1   
   173  174  175 1   
   174  174  176 1   
   175  177  178 1   
   176  177  179 1   
   177  180  181 1   
   178  180  182 1   
   179  183  184 1   
   180  183  185 1   
@<TRIPOS>SUBSTRUCTURE
     1 MOL         1 TEMP              0 ****  ****    0 ROOT
