@<TRIPOS>MOLECULE
MOL
  179   176     1     0     0
SMALL
resp


@<TRIPOS>ATOM
      1 C1          1.1220   -6.9350    4.7420 c3        1 MOL     -0.382898
      2 C2          0.9190   -6.0210    3.6000 c         1 MOL      0.769310
      3 O1          0.0720   -6.2580    2.7490 o         1 MOL     -0.608267
      4 H1          0.5540   -6.5770    5.6000 hc        1 MOL      0.104431
      5 H2          0.7810   -7.9350    4.4740 hc        1 MOL      0.104431
      6 H3          2.1810   -6.9680    4.9980 hc        1 MOL      0.104431
      7 N1          1.7730   -4.9850    3.4650 n         1 MOL     -0.672504
      8 C3          1.8740   -4.1150    2.3270 c3        1 MOL      0.176088
      9 C4          2.5580   -4.8800    1.1710 c         1 MOL      0.629643
     10 O2          3.6480   -5.4230    1.3490 o         1 MOL     -0.519276
     11 C5          2.6820   -2.9030    2.8150 c3        1 MOL     -0.061766
     12 C6          2.8360   -1.8260    1.7190 c         1 MOL      0.550554
     13 O3          3.3890   -0.7040    1.9720 o         1 MOL     -0.678128
     14 O4          2.3340   -1.9980    0.5490 o         1 MOL     -0.678128
     15 H4          2.4290   -4.8340    4.2220 hn        1 MOL      0.313058
     16 H5          0.9410   -3.7330    1.9230 h1        1 MOL      0.000293
     17 H6          3.6720   -3.2920    3.0570 hc        1 MOL      0.055601
     18 H7          2.2000   -2.4390    3.6780 hc        1 MOL      0.055601
     19 N2          1.8330   -4.8500    0.0160 n         1 MOL     -0.396863
     20 C7          2.1530   -5.6380   -1.2000 c3        1 MOL     -0.044987
     21 C8          3.5490   -5.2570   -1.7930 c         1 MOL      0.387846
     22 O5          4.1920   -6.0900   -2.3830 o         1 MOL     -0.528230
     23 C9          1.1400   -5.4430   -2.4070 c3        1 MOL     -0.173532
     24 C10         1.0410   -3.9720   -2.9360 c3        1 MOL      0.100226
     25 C11        -0.1020   -4.0850   -4.0090 c3        1 MOL     -0.242671
     26 C12        -0.3570   -2.6940   -4.4980 c3        1 MOL      0.260557
     27 N3         -1.2630   -2.5060   -5.5760 n4        1 MOL     -0.338649
     28 H8          0.9830   -4.3080   -0.0110 hn        1 MOL      0.232411
     29 H9          2.1540   -6.6870   -0.8740 h1        1 MOL      0.123433
     30 H10         0.1410   -5.8200   -2.1450 hc        1 MOL      0.093784
     31 H11         1.4370   -6.1020   -3.2230 hc        1 MOL      0.093784
     32 H12         1.9380   -3.5790   -3.4190 hc        1 MOL      0.045449
     33 H13         0.7910   -3.2460   -2.1630 hc        1 MOL      0.045449
     34 H14        -1.0020   -4.4670   -3.5460 hc        1 MOL      0.061157
     35 H15         0.2090   -4.7600   -4.7990 hc        1 MOL      0.061157
     36 H16         0.6010   -2.1900   -4.5950 hx        1 MOL      0.010276
     37 H17        -0.7840   -2.1990   -3.6260 hx        1 MOL      0.010276
     38 H18        -1.5850   -1.5640   -5.7470 hn        1 MOL      0.300587
     39 H19        -0.8870   -2.8960   -6.4290 hn        1 MOL      0.300587
     40 H20        -2.0850   -3.0770   -5.4390 hn        1 MOL      0.300587
     41 N4          4.0140   -4.0170   -1.6590 n         1 MOL     -0.017132
     42 C13         5.3690   -3.6740   -2.1550 c3        1 MOL     -0.028609
     43 C14         6.3060   -3.2210   -0.9920 c         1 MOL      0.399273
     44 O6          7.4970   -2.9370   -1.2140 o         1 MOL     -0.525952
     45 C15         5.1880   -2.6100   -3.2910 c3        1 MOL     -0.277593
     46 C16         4.5070   -1.2960   -2.8420 c         1 MOL      0.639612
     47 O7          4.4650   -0.9840   -1.5980 o         1 MOL     -0.655719
     48 O8          3.8410   -0.6840   -3.7290 o         1 MOL     -0.655719
     49 H21         3.5390   -3.1570   -1.4040 hn        1 MOL      0.039870
     50 H22         6.0000   -4.4230   -2.6460 h1        1 MOL      0.130827
     51 H23         4.6150   -3.0890   -4.0860 hc        1 MOL      0.088005
     52 H24         6.1750   -2.3440   -3.6470 hc        1 MOL      0.088005
     53 N5          5.7200   -3.1570    0.2480 n         1 MOL      0.009875
     54 C17         6.5050   -2.8020    1.4780 c3        1 MOL     -0.208439
     55 C18         6.7000   -1.3120    1.6860 c         1 MOL      0.576711
     56 O9          6.8300   -0.8650    2.7890 o         1 MOL     -0.551670
     57 H25         4.7690   -3.4850    0.3930 hn        1 MOL     -0.003615
     58 H26         7.4740   -3.2950    1.3840 h1        1 MOL      0.108146
     59 H27         6.0240   -3.1740    2.3760 h1        1 MOL      0.108146
     60 N6          6.6910   -0.5560    0.5800 n         1 MOL     -0.150369
     61 C19         7.1330    0.8230    0.4990 c3        1 MOL      0.060677
     62 C20         6.0510    1.8350    0.2180 c         1 MOL      0.655936
     63 O10         4.8680    1.4930    0.0380 o         1 MOL     -0.593298
     64 C21         8.1570    0.8880   -0.6120 c3        1 MOL     -0.229973
     65 C22         7.6710    0.9090   -2.0190 c         1 MOL      0.800554
     66 N7          7.6530   -0.1590   -2.7480 n         1 MOL     -0.835165
     67 O11         7.4210    1.9470   -2.5750 o         1 MOL     -0.618844
     68 H28         6.3450   -1.0060   -0.2600 hn        1 MOL     -0.054560
     69 H29         7.5840    1.1170    1.4390 h1        1 MOL      0.068346
     70 H30         8.9300    0.1350   -0.4540 hc        1 MOL      0.055464
     71 H31         8.6960    1.8450   -0.5390 hc        1 MOL      0.055464
     72 H32         7.6940   -1.0930   -2.3650 hn        1 MOL      0.385158
     73 H33         7.2680   -0.0570   -3.6690 hn        1 MOL      0.385158
     74 N8          6.3530    3.0990    0.1430 n         1 MOL     -0.609504
     75 C23         5.4340    4.0770   -0.3320 c3        1 MOL     -0.064930
     76 C24         4.3250    4.4750    0.6090 c         1 MOL      0.704876
     77 O12         4.4470    4.4080    1.8230 o         1 MOL     -0.520262
     78 H34         7.3140    3.3920    0.1360 hn        1 MOL      0.379118
     79 H35         5.0590    3.7520   -1.3020 h1        1 MOL      0.100959
     80 H36         5.9600    4.9920   -0.6010 h1        1 MOL      0.100959
     81 N9          3.2150    4.8510    0.0290 n         1 MOL     -0.781174
     82 C25         1.9370    5.0450    0.8140 c3        1 MOL      0.502377
     83 C26         1.3050    3.6490    1.2330 c         1 MOL      0.331491
     84 O13         1.8170    2.6600    0.6920 o         1 MOL     -0.537725
     85 C27         0.8680    5.7330   -0.0740 c3        1 MOL     -0.114576
     86 C28         1.1620    7.1490   -0.4340 ca        1 MOL      0.016716
     87 C29         1.3390    8.1290    0.5870 ca        1 MOL     -0.090680
     88 C30         1.3630    7.4730   -1.7740 ca        1 MOL     -0.090680
     89 C31         1.5800    9.4530    0.2370 ca        1 MOL     -0.357380
     90 C32         1.5720    8.8530   -2.1410 ca        1 MOL     -0.357380
     91 C33         1.6320    9.8560   -1.1380 ca        1 MOL      0.412862
     92 O14         1.6400   11.1190   -1.4690 oh        1 MOL     -0.415523
     93 H37         3.1650    4.9990   -0.9630 hn        1 MOL      0.293802
     94 H38         2.1160    5.5320    1.7700 h1        1 MOL     -0.016899
     95 H39        -0.0270    5.7710    0.5430 hc        1 MOL      0.009355
     96 H40         0.6050    5.1670   -0.9580 hc        1 MOL      0.009355
     97 H41         1.1730    7.7840    1.5980 ha        1 MOL      0.116098
     98 H42         1.3360    6.7070   -2.5360 ha        1 MOL      0.116098
     99 H43         1.6150   10.1860    1.0380 ha        1 MOL      0.182072
    100 H44         1.7550    9.1090   -3.1740 ha        1 MOL      0.182072
    101 H45         1.6560   11.1510   -2.4310 ho        1 MOL      0.334479
    102 N10         0.3520    3.5520    2.1280 n         1 MOL     -0.239459
    103 C34        -0.2280    2.3430    2.7650 c3        1 MOL     -0.383492
    104 C35        -0.6830    1.2260    1.7760 c         1 MOL      0.406394
    105 O15         0.2000    0.3930    1.3360 o         1 MOL     -0.529495
    106 C36         0.7050    1.7680    3.9280 c3        1 MOL      0.479347
    107 C37        -0.1170    0.7300    4.7620 c3        1 MOL      0.069420
    108 C38         1.3750    2.8630    4.8080 c3        1 MOL     -0.147413
    109 C39         0.6640    0.1680    6.0220 c3        1 MOL     -0.113810
    110 H46         0.0370    4.4420    2.4780 hn        1 MOL      0.251927
    111 H47        -1.1210    2.8120    3.1950 h1        1 MOL      0.148081
    112 H48         1.5910    1.2440    3.5620 hc        1 MOL     -0.014196
    113 H49        -0.4270   -0.0840    4.1020 hc        1 MOL     -0.054109
    114 H50        -1.0160    1.2200    5.1380 hc        1 MOL     -0.054109
    115 H51         0.5700    3.5000    5.2000 hc        1 MOL      0.019823
    116 H52         1.9610    2.4450    5.6210 hc        1 MOL      0.019823
    117 H53         2.0100    3.4780    4.1730 hc        1 MOL      0.019823
    118 H54         0.0880   -0.6940    6.3590 hc        1 MOL      0.033533
    119 H55         1.6580   -0.1700    5.7190 hc        1 MOL      0.033533
    120 H56         0.7300    0.9420    6.7830 hc        1 MOL      0.033533
    121 N11        -1.9990    1.0000    1.6200 n         1 MOL     -0.258567
    122 C40        -2.5360   -0.2960    1.1610 c3        1 MOL     -0.085391
    123 C41        -3.8350   -0.2410    0.3590 c         1 MOL      0.700382
    124 O16        -4.5980   -1.1660    0.1750 o         1 MOL     -0.558976
    125 C42        -2.7600   -1.2590    2.3290 c3        1 MOL      0.130948
    126 O17        -3.4420   -0.6180    3.4370 oh        1 MOL     -0.609281
    127 H57        -2.6530    1.6480    2.0340 hn        1 MOL      0.278582
    128 H58        -1.8340   -0.6700    0.4060 h1        1 MOL      0.022886
    129 H59        -1.8370   -1.6980    2.7100 h1        1 MOL      0.069139
    130 H60        -3.4270   -2.1040    2.1230 h1        1 MOL      0.069139
    131 H61        -3.1990   -1.0580    4.2530 ho        1 MOL      0.411538
    132 N12        -4.1850    0.9410   -0.2130 n         1 MOL     -0.539617
    133 C43        -5.3910    1.0900   -1.0350 c3        1 MOL      0.270730
    134 C44        -5.3640    0.1300   -2.2590 c         1 MOL      0.477763
    135 O18        -4.5160    0.1880   -3.1240 o         1 MOL     -0.567510
    136 C45        -5.5750    2.5670   -1.2940 c3        1 MOL     -0.257129
    137 H62        -3.5030    1.6580   -0.0120 hn        1 MOL      0.229151
    138 H63        -6.2580    0.8760   -0.4060 h1        1 MOL      0.022827
    139 H64        -5.4090    3.1150   -0.3710 hc        1 MOL      0.082840
    140 H65        -4.8960    2.9350   -2.0680 hc        1 MOL      0.082840
    141 H66        -6.5970    2.7960   -1.5720 hc        1 MOL      0.082840
    142 N13        -6.4020   -0.7460   -2.4330 n         1 MOL     -0.527290
    143 C46        -7.4630   -1.2890   -1.6120 c3        1 MOL      0.093201
    144 C47        -8.6640   -0.2790   -1.7930 c         1 MOL      0.821302
    145 O19        -8.8050    0.3870   -2.8110 o         1 MOL     -0.598218
    146 C48        -7.8280   -2.6940   -2.1480 c3        1 MOL     -0.293206
    147 H67        -6.3760   -1.1320   -3.3650 hn        1 MOL      0.303242
    148 H68        -7.1280   -1.3810   -0.5790 h1        1 MOL      0.123564
    149 H69        -7.3720   -3.5350   -1.6260 hc        1 MOL      0.089972
    150 H70        -8.8990   -2.8750   -2.0110 hc        1 MOL      0.089972
    151 H71        -7.8040   -2.7790   -3.2360 hc        1 MOL      0.089972
    152 N14        -9.5850   -0.1100   -0.8400 n         1 MOL     -0.773185
    153 C49        -9.9440   -1.0820    0.2200 c3        1 MOL     -0.000573
    154 C50        -9.9890   -0.5220    1.6440 c         1 MOL      0.415161
    155 O20        -9.7900   -1.2780    2.6590 o         1 MOL     -0.533945
    156 C51       -11.2340   -1.7430   -0.1870 c3        1 MOL      0.073768
    157 C52       -12.5690   -0.9260    0.0410 c3        1 MOL     -0.047420
    158 C53       -12.7240    0.2340   -0.9390 c         1 MOL      0.661524
    159 O21       -13.4820    0.0990   -1.9160 o         1 MOL     -0.650315
    160 O22       -12.1300    1.3560   -0.7310 o         1 MOL     -0.650315
    161 H72       -10.3460    0.5110   -1.0760 hn        1 MOL      0.342564
    162 H73        -9.1790   -1.8640    0.2380 h1        1 MOL      0.040428
    163 H74       -11.3040   -2.6470    0.4220 hc        1 MOL     -0.002616
    164 H75       -11.2440   -2.0680   -1.2300 hc        1 MOL     -0.002616
    165 H76       -12.7400   -0.6710    1.0770 hc        1 MOL     -0.005457
    166 H77       -13.4580   -1.5260   -0.1800 hc        1 MOL     -0.005457
    167 N15       -10.3380    0.7600    1.7310 n         1 MOL     -0.156725
    168 C54       -10.5500    1.5260    2.9880 c3        1 MOL     -0.248183
    169 H78       -10.7900    2.5610    2.7450 h1        1 MOL      0.104232
    170 H79       -11.3750    1.0850    3.5480 h1        1 MOL      0.104232
    171 H80        -9.6430    1.4950    3.5910 h1        1 MOL      0.104232
    172 H81       -10.5210    1.3080    0.9060 hn        1 MOL      0.204427
    173 Ca1         2.6730    0.3210   -0.3470 Ca        1 MOL      1.729847
    174 O23         2.3180    2.1220   -2.1230 oh        1 MOL     -0.841363
    175 H82         2.6220    2.9720   -2.4320 ho        1 MOL      0.425665
    176 H83         1.4190    2.2840   -1.8310 ho        1 MOL      0.425665
    177 O24         0.4320   -0.7150   -1.5550 oh        1 MOL     -0.841363
    178 H84        -0.3800   -0.6020   -2.0480 ho        1 MOL      0.425665
    179 H85         0.2090   -1.3460   -0.8750 ho        1 MOL      0.425665
@<TRIPOS>BOND
     1    1    2 1   
     2    1    4 1   
     3    1    5 1   
     4    1    6 1   
     5    2    3 2   
     6    2    7 1   
     7    7    8 1   
     8    7   15 1   
     9    8    9 1   
    10    8   11 1   
    11    8   16 1   
    12    9   10 2   
    13    9   19 1   
    14   11   12 1   
    15   11   17 1   
    16   11   18 1   
    17   12   13 1   
    18   12   14 1   
    19   19   20 1   
    20   19   28 1   
    21   20   21 1   
    22   20   23 1   
    23   20   29 1   
    24   21   22 2   
    25   21   41 1   
    26   23   24 1   
    27   23   30 1   
    28   23   31 1   
    29   24   25 1   
    30   24   32 1   
    31   24   33 1   
    32   25   26 1   
    33   25   34 1   
    34   25   35 1   
    35   26   27 1   
    36   26   36 1   
    37   26   37 1   
    38   27   38 1   
    39   27   39 1   
    40   27   40 1   
    41   41   42 1   
    42   41   49 1   
    43   42   43 1   
    44   42   45 1   
    45   42   50 1   
    46   43   44 2   
    47   43   53 1   
    48   45   46 1   
    49   45   51 1   
    50   45   52 1   
    51   46   47 1   
    52   46   48 1   
    53   53   54 1   
    54   53   57 1   
    55   54   55 1   
    56   54   58 1   
    57   54   59 1   
    58   55   56 2   
    59   55   60 1   
    60   60   61 1   
    61   60   68 1   
    62   61   62 1   
    63   61   64 1   
    64   61   69 1   
    65   62   63 2   
    66   62   74 1   
    67   64   65 1   
    68   64   70 1   
    69   64   71 1   
    70   65   66 1   
    71   65   67 2   
    72   66   72 1   
    73   66   73 1   
    74   74   75 1   
    75   74   78 1   
    76   75   76 1   
    77   75   79 1   
    78   75   80 1   
    79   76   77 2   
    80   76   81 1   
    81   81   82 1   
    82   81   93 1   
    83   82   83 1   
    84   82   85 1   
    85   82   94 1   
    86   83   84 2   
    87   83  102 1   
    88   85   86 1   
    89   85   95 1   
    90   85   96 1   
    91   86   87 ar  
    92   86   88 ar  
    93   87   89 ar  
    94   87   97 1   
    95   88   90 ar  
    96   88   98 1   
    97   89   91 ar  
    98   89   99 1   
    99   90   91 ar  
   100   90  100 1   
   101   91   92 1   
   102   92  101 1   
   103  102  103 1   
   104  102  110 1   
   105  103  104 1   
   106  103  106 1   
   107  103  111 1   
   108  104  105 2   
   109  104  121 1   
   110  106  107 1   
   111  106  108 1   
   112  106  112 1   
   113  107  109 1   
   114  107  113 1   
   115  107  114 1   
   116  108  115 1   
   117  108  116 1   
   118  108  117 1   
   119  109  118 1   
   120  109  119 1   
   121  109  120 1   
   122  121  122 1   
   123  121  127 1   
   124  122  123 1   
   125  122  125 1   
   126  122  128 1   
   127  123  124 2   
   128  123  132 1   
   129  125  126 1   
   130  125  129 1   
   131  125  130 1   
   132  126  131 1   
   133  132  133 1   
   134  132  137 1   
   135  133  134 1   
   136  133  136 1   
   137  133  138 1   
   138  134  135 2   
   139  134  142 1   
   140  136  139 1   
   141  136  140 1   
   142  136  141 1   
   143  142  143 1   
   144  142  147 1   
   145  143  144 1   
   146  143  146 1   
   147  143  148 1   
   148  144  145 2   
   149  144  152 1   
   150  146  149 1   
   151  146  150 1   
   152  146  151 1   
   153  152  153 1   
   154  152  161 1   
   155  153  154 1   
   156  153  156 1   
   157  153  162 1   
   158  154  155 2   
   159  154  167 1   
   160  156  157 1   
   161  156  163 1   
   162  156  164 1   
   163  157  158 1   
   164  157  165 1   
   165  157  166 1   
   166  158  159 1   
   167  158  160 1   
   168  167  168 1   
   169  167  172 1   
   170  168  169 1   
   171  168  170 1   
   172  168  171 1   
   173  174  175 1   
   174  174  176 1   
   175  177  178 1   
   176  177  179 1   
@<TRIPOS>SUBSTRUCTURE
     1 MOL         1 TEMP              0 ****  ****    0 ROOT
