@<TRIPOS>MOLECULE
MOL
  195   189     1     0     0
SMALL
resp


@<TRIPOS>ATOM
      1 C1          7.3450    1.9610    4.5020 c3        1 MOL     -0.280233
      2 C2          6.5790    1.5410    3.2630 c         1 MOL      0.850754
      3 O1          6.1090    2.3470    2.5490 o         1 MOL     -0.637764
      4 H1          6.6410    2.2420    5.2850 hc        1 MOL      0.063528
      5 H2          7.9610    1.1320    4.8480 hc        1 MOL      0.063528
      6 H3          7.9820    2.8130    4.2640 hc        1 MOL      0.063528
      7 N1          6.5060    0.2460    2.9830 n         1 MOL     -0.495326
      8 C3          5.7560   -0.4170    1.9340 c3        1 MOL      0.208200
      9 C4          4.2580   -0.3130    1.8760 c         1 MOL      0.033037
     10 O2          3.6030   -0.8820    0.9580 o         1 MOL     -0.133152
     11 C5          6.0970   -1.9750    2.0110 c3        1 MOL     -0.148283
     12 C6          7.5860   -2.4880    2.3450 c         1 MOL      0.616690
     13 O3          8.0860   -3.2620    1.5050 o         1 MOL     -0.645630
     14 O4          8.2430   -2.1300    3.3680 o         1 MOL     -0.645630
     15 H4          6.9440   -0.3750    3.6530 hn        1 MOL      0.214279
     16 H5          6.0700   -0.0010    0.9730 h1        1 MOL      0.031177
     17 H6          5.7110   -2.3830    1.0770 hc        1 MOL      0.020716
     18 H7          5.4450   -2.3930    2.7680 hc        1 MOL      0.020716
     19 N2          3.6700    0.3480    2.9300 n         1 MOL     -0.192938
     20 C7          2.1710    0.5310    3.0030 c3        1 MOL      0.101873
     21 C8          1.5950    1.8890    2.5460 c         1 MOL      0.392330
     22 O5          1.9660    2.9790    2.9720 o         1 MOL     -0.483536
     23 C9          1.6520    0.0860    4.3690 c3        1 MOL     -0.222263
     24 C10         1.8650   -1.3660    4.6070 c3        1 MOL      0.330673
     25 C11         1.1430   -1.9920    5.7840 c3        1 MOL     -0.468257
     26 C12        -0.1850   -2.6310    5.2240 c3        1 MOL      0.307885
     27 N3         -1.2020   -2.9880    6.2500 n4        1 MOL     -0.551738
     28 H8          4.2320    0.8020    3.6490 hn        1 MOL      0.218497
     29 H9          1.7310   -0.1750    2.3080 h1        1 MOL     -0.045783
     30 H10         0.6410    0.4560    4.4800 hc        1 MOL      0.063054
     31 H11         2.1640    0.6750    5.1360 hc        1 MOL      0.063054
     32 H12         2.9510   -1.5000    4.6290 hc        1 MOL     -0.019276
     33 H13         1.5970   -1.9300    3.7200 hc        1 MOL     -0.019276
     34 H14         0.9090   -1.1360    6.4180 hc        1 MOL      0.124411
     35 H15         1.7690   -2.7790    6.1980 hc        1 MOL      0.124411
     36 H16         0.0470   -3.5230    4.6520 hx        1 MOL      0.029981
     37 H17        -0.6020   -1.9730    4.4640 hx        1 MOL      0.029981
     38 H18        -1.2490   -2.1670    6.8340 hn        1 MOL      0.367899
     39 H19        -2.0450   -3.2620    5.7780 hn        1 MOL      0.367899
     40 H20        -0.8990   -3.7540    6.8340 hn        1 MOL      0.367899
     41 N4          0.5510    1.9760    1.7170 n         1 MOL     -0.189239
     42 C13        -0.3660    1.0310    1.0830 c3        1 MOL      0.053446
     43 C14        -0.9120   -0.1420    2.0170 c         1 MOL      0.639960
     44 O6         -0.3690   -1.2340    2.1360 o         1 MOL     -0.543329
     45 C15         0.1540    0.5230   -0.2440 c3        1 MOL     -0.287656
     46 C16         0.2970    1.6330   -1.3250 c         1 MOL      0.747939
     47 O7         -0.4800    2.6350   -1.2830 o         1 MOL     -0.722325
     48 O8          0.9500    1.5120   -2.4000 o         1 MOL     -0.722325
     49 H21         0.3530    2.9490    1.5550 hn        1 MOL      0.138559
     50 H22        -1.2300    1.6380    0.8000 h1        1 MOL     -0.094852
     51 H23        -0.5770   -0.1910   -0.6190 hc        1 MOL      0.158664
     52 H24         1.1260    0.0950    0.0050 hc        1 MOL      0.158664
     53 N5         -2.0690    0.0720    2.7450 n         1 MOL     -0.624247
     54 C17        -2.8630    1.2810    2.5380 c3        1 MOL     -0.013977
     55 C18        -4.0340    1.4910    3.5620 c         1 MOL      0.520630
     56 O9         -4.1030    0.7920    4.5480 o         1 MOL     -0.556953
     57 H25        -2.5460   -0.6900    3.2050 hn        1 MOL      0.360871
     58 H26        -3.2770    1.2210    1.5300 h1        1 MOL      0.137733
     59 H27        -2.2070    2.1380    2.6810 h1        1 MOL      0.137733
     60 N6         -5.0150    2.3520    3.3300 n         1 MOL     -0.484123
     61 C19        -5.1910    3.3850    2.2560 c3        1 MOL      0.249197
     62 C20        -6.0870    2.8150    1.0770 c         1 MOL      0.266237
     63 O10        -6.8920    1.8560    1.3250 o         1 MOL     -0.384606
     64 C21        -5.8330    4.6440    2.8020 c3        1 MOL     -0.191207
     65 C22        -7.1790    4.4160    3.5620 c         1 MOL      0.706349
     66 O11        -8.2980    4.6530    3.0290 o         1 MOL     -0.667775
     67 O12        -7.1760    3.9450    4.6940 o         1 MOL     -0.667775
     68 H28        -5.5800    2.4450    4.1610 hn        1 MOL      0.309167
     69 H29        -4.2400    3.6450    1.8090 h1        1 MOL     -0.075633
     70 H30        -5.9310    5.3500    1.9800 hc        1 MOL      0.002946
     71 H31        -5.1480    5.0480    3.5530 hc        1 MOL      0.002946
     72 N7         -6.1110    3.5300   -0.0230 n         1 MOL     -0.147889
     73 C23        -7.0200    3.3110   -1.1300 c3        1 MOL     -0.488755
     74 C24        -6.8870    1.9640   -1.8410 c         1 MOL      0.725625
     75 O13        -7.7430    1.7090   -2.6990 o         1 MOL     -0.565895
     76 H32        -5.3100    4.1310   -0.1220 hn        1 MOL      0.265763
     77 H33        -6.9140    4.1100   -1.8590 h1        1 MOL      0.200504
     78 H34        -8.0250    3.4120   -0.7230 h1        1 MOL      0.200504
     79 N8         -5.8440    1.1280   -1.6040 n         1 MOL     -0.458197
     80 C25        -5.6470   -0.1910   -2.0790 c3        1 MOL      0.020839
     81 C26        -5.4050   -1.1520   -0.9000 c         1 MOL      0.667147
     82 O14        -4.9630   -0.7980    0.2510 o         1 MOL     -0.492469
     83 C27        -4.5020   -0.1530   -3.1130 c3        1 MOL      0.371986
     84 C28        -4.7290    0.4210   -4.4880 c3        1 MOL     -0.230822
     85 O15        -3.9110   -1.3940   -3.2380 oh        1 MOL     -0.590005
     86 H35        -5.4120    1.3140   -0.7140 hn        1 MOL      0.093197
     87 H36        -6.5210   -0.5030   -2.6520 h1        1 MOL      0.059777
     88 H37        -3.7120    0.4690   -2.6800 h1        1 MOL      0.063122
     89 H38        -4.5630   -1.9710   -3.6440 ho        1 MOL      0.366027
     90 H39        -5.6540    0.0060   -4.8820 hc        1 MOL      0.049468
     91 H40        -4.7600    1.5050   -4.3440 hc        1 MOL      0.049468
     92 H41        -3.8490    0.1440   -5.0760 hc        1 MOL      0.049468
     93 N9         -5.7740   -2.4560   -1.1160 n         1 MOL     -0.538514
     94 C29        -5.8780   -3.5180   -0.1150 c3        1 MOL     -0.144244
     95 C30        -4.6290   -4.4750   -0.1400 c         1 MOL      0.329616
     96 O16        -4.5940   -5.5350    0.4990 o         1 MOL     -0.499861
     97 C31        -7.1890   -4.2840   -0.1560 c3        1 MOL      0.350425
     98 C32        -7.3500   -5.0080   -1.5220 c3        1 MOL     -0.043064
     99 C33        -8.3170   -3.3440    0.0070 c3        1 MOL     -0.256541
    100 C34        -8.6280   -5.8000   -1.6580 c3        1 MOL     -0.095747
    101 H42        -5.9460   -2.7460   -2.0650 hn        1 MOL      0.256140
    102 H43        -5.8160   -2.9650    0.8250 h1        1 MOL      0.156292
    103 H44        -7.1180   -4.9780    0.6820 hc        1 MOL     -0.021447
    104 H45        -6.5760   -5.7750   -1.5250 hc        1 MOL      0.017514
    105 H46        -7.2460   -4.3550   -2.3920 hc        1 MOL      0.017514
    106 H47        -8.4980   -2.9810   -1.0070 hc        1 MOL      0.058189
    107 H48        -9.2280   -3.8070    0.3840 hc        1 MOL      0.058189
    108 H49        -8.0260   -2.5220    0.6570 hc        1 MOL      0.058189
    109 H50        -9.4590   -5.0970   -1.6370 hc        1 MOL      0.021531
    110 H51        -8.6770   -6.4460   -2.5360 hc        1 MOL      0.021531
    111 H52        -8.7270   -6.3050   -0.6930 hc        1 MOL      0.021531
    112 N10        -3.5330   -4.0490   -0.7820 n         1 MOL     -0.093203
    113 C35        -2.1990   -4.6960   -0.8610 c3        1 MOL      0.083471
    114 C36        -1.0780   -3.6790   -0.9450 c         1 MOL      0.357056
    115 O17        -1.3510   -2.5230   -1.3030 o         1 MOL     -0.383729
    116 C37        -2.0350   -5.6870   -2.0340 c3        1 MOL      0.276138
    117 C38        -2.3890   -4.9380   -3.3430 c3        1 MOL     -0.301518
    118 O18        -2.9470   -6.8000   -1.9930 oh        1 MOL     -0.620710
    119 H53        -3.5440   -3.1230   -1.1730 hn        1 MOL      0.058288
    120 H54        -2.0800   -5.3200    0.0340 h1        1 MOL      0.066817
    121 H55        -1.0190   -6.0670   -2.0500 h1        1 MOL      0.014878
    122 H56        -3.1840   -6.9950   -2.9010 ho        1 MOL      0.394184
    123 H57        -1.5470   -4.2540   -3.4610 hc        1 MOL      0.074902
    124 H58        -2.5090   -5.6240   -4.1720 hc        1 MOL      0.074902
    125 H59        -3.3420   -4.4340   -3.2040 hc        1 MOL      0.074902
    126 N11         0.1390   -4.0890   -0.4830 n         1 MOL     -0.458628
    127 C39         1.2780   -3.2280   -0.3810 c3        1 MOL      0.042006
    128 C40         1.8450   -2.7400   -1.7450 c         1 MOL      0.483560
    129 O19         1.3700   -3.1300   -2.7190 o         1 MOL     -0.461865
    130 C41         2.4000   -4.0090    0.3800 c3        1 MOL      0.309810
    131 C42         3.0600   -5.1760   -0.4660 c3        1 MOL     -0.399863
    132 O20         1.8210   -4.6460    1.5160 oh        1 MOL     -0.634211
    133 H60         0.2610   -5.0820   -0.3260 hn        1 MOL      0.307750
    134 H61         1.1570   -2.3850    0.3090 h1        1 MOL      0.127784
    135 H62         3.1840   -3.3690    0.7880 h1        1 MOL      0.012465
    136 H63         2.5860   -4.9430    2.0070 ho        1 MOL      0.399817
    137 H64         3.7480   -4.8390   -1.2300 hc        1 MOL      0.108321
    138 H65         3.6670   -5.7470    0.2250 hc        1 MOL      0.108321
    139 H66         2.3610   -5.8490   -0.9670 hc        1 MOL      0.108321
    140 N12         2.8900   -1.8790   -1.7100 n         1 MOL     -0.292750
    141 C43         3.6050   -1.4300   -2.9150 c3        1 MOL     -0.130664
    142 C44         4.1480   -0.0150   -2.8400 c         1 MOL      0.859455
    143 O21         4.5440    0.4970   -3.8860 o         1 MOL     -0.684685
    144 C45         4.6560   -2.4950   -3.4490 c3        1 MOL     -0.316239
    145 C46         5.6630   -2.9190   -2.3050 c3        1 MOL      0.034913
    146 C47         6.4870   -4.1250   -2.7600 c3        1 MOL     -0.092359
    147 C48         7.6270   -4.3310   -1.7700 c3        1 MOL      0.084515
    148 N13         8.7470   -3.3800   -2.0040 n4        1 MOL     -0.584770
    149 H67         3.3270   -1.6420   -0.8250 hn        1 MOL     -0.050252
    150 H68         2.8140   -1.3020   -3.6560 h1        1 MOL      0.149256
    151 H69         5.1890   -2.1910   -4.3530 hc        1 MOL      0.120094
    152 H70         4.1610   -3.4370   -3.6670 hc        1 MOL      0.120094
    153 H71         5.1160   -3.1600   -1.3970 hc        1 MOL      0.036326
    154 H72         6.2300   -2.0190   -2.0410 hc        1 MOL      0.036326
    155 H73         6.8950   -4.0240   -3.7610 hc        1 MOL      0.058035
    156 H74         5.8690   -5.0290   -2.7290 hc        1 MOL      0.058035
    157 H75         7.8550   -5.3880   -1.8890 hx        1 MOL      0.062448
    158 H76         7.2610   -4.2790   -0.7450 hx        1 MOL      0.062448
    159 H77         8.4070   -2.4960   -1.6770 hn        1 MOL      0.388717
    160 H78         9.5610   -3.6790   -1.4760 hn        1 MOL      0.388717
    161 H79         9.0520   -3.3620   -2.9690 hn        1 MOL      0.388717
    162 N14         4.2490    0.7090   -1.7200 n         1 MOL     -0.532284
    163 C49         4.4990    2.1690   -1.5520 c3        1 MOL      0.082330
    164 C50         5.9620    2.5840   -1.8250 c         1 MOL      0.243399
    165 O22         6.8900    2.0740   -1.1550 o         1 MOL     -0.502978
    166 C51         3.8750    2.6250   -0.2220 c3        1 MOL      0.819564
    167 C52         3.9320    4.0980    0.1950 c3        1 MOL     -0.331258
    168 C53         3.4190    5.1740   -0.8160 c         1 MOL      0.578576
    169 O23         4.2790    5.8690   -1.3650 o         1 MOL     -0.714143
    170 O24         2.2260    5.2430   -1.2110 o         1 MOL     -0.714143
    171 H80         4.0890    0.2050   -0.8610 hn        1 MOL      0.285740
    172 H81         3.9300    2.6870   -2.3190 h1        1 MOL      0.043368
    173 H82         4.2030    1.9350    0.5630 hc        1 MOL     -0.339244
    174 H83         2.7990    2.5110   -0.3620 hc        1 MOL     -0.339244
    175 H84         4.9520    4.3320    0.5130 hc        1 MOL      0.111739
    176 H85         3.2960    4.1720    1.0790 hc        1 MOL      0.111739
    177 N15         6.1690    3.4570   -2.7330 n         1 MOL      0.001232
    178 C54         7.5500    3.8650   -3.0880 c3        1 MOL     -0.318029
    179 H86         7.6160    4.0240   -4.1640 h1        1 MOL      0.118137
    180 H87         7.8010    4.7900   -2.5680 h1        1 MOL      0.118137
    181 H88         8.2480    3.0820   -2.7940 h1        1 MOL      0.118137
    182 H89         5.4670    3.8350   -3.3540 hn        1 MOL      0.218031
    183 Ca1        -0.2070    5.3190   -1.6540 Ca        1 MOL      1.722749
    184 O25         0.8310    3.8860   -3.6000 oh        1 MOL     -0.865618
    185 H90         0.8140    2.9610   -3.3560 ho        1 MOL      0.428317
    186 H91         1.6760    4.0180   -4.0190 ho        1 MOL      0.428317
    187 O26        -1.9840    4.0400   -3.2120 oh        1 MOL     -0.865618
    188 H92        -2.1980    4.2960   -4.1100 ho        1 MOL      0.428317
    189 H93        -1.7620    3.1100   -3.2750 ho        1 MOL      0.428317
    190 O27         0.8640    6.8750   -3.4930 oh        1 MOL     -0.865618
    191 H94         1.8120    6.8040   -3.4170 ho        1 MOL      0.428317
    192 H95         0.7380    7.5100   -4.2040 ho        1 MOL      0.428317
    193 O28        -1.8540    7.1490   -2.9350 oh        1 MOL     -0.865618
    194 H96        -2.5010    7.8300   -2.7220 ho        1 MOL      0.428317
    195 H97        -1.4010    7.4850   -3.7040 ho        1 MOL      0.428317
@<TRIPOS>BOND
     1    1    2 1   
     2    1    4 1   
     3    1    5 1   
     4    1    6 1   
     5    2    3 2   
     6    2    7 1   
     7    7    8 1   
     8    7   15 1   
     9    8    9 1   
    10    8   11 1   
    11    8   16 1   
    12    9   10 2   
    13    9   19 1   
    14   11   12 1   
    15   11   17 1   
    16   11   18 1   
    17   12   13 1   
    18   12   14 1   
    19   19   20 1   
    20   19   28 1   
    21   20   21 1   
    22   20   23 1   
    23   20   29 1   
    24   21   22 2   
    25   21   41 1   
    26   23   24 1   
    27   23   30 1   
    28   23   31 1   
    29   24   25 1   
    30   24   32 1   
    31   24   33 1   
    32   25   26 1   
    33   25   34 1   
    34   25   35 1   
    35   26   27 1   
    36   26   36 1   
    37   26   37 1   
    38   27   38 1   
    39   27   39 1   
    40   27   40 1   
    41   41   42 1   
    42   41   49 1   
    43   42   43 1   
    44   42   45 1   
    45   42   50 1   
    46   43   44 2   
    47   43   53 1   
    48   45   46 1   
    49   45   51 1   
    50   45   52 1   
    51   46   47 1   
    52   46   48 1   
    53   53   54 1   
    54   53   57 1   
    55   54   55 1   
    56   54   58 1   
    57   54   59 1   
    58   55   56 2   
    59   55   60 1   
    60   60   61 1   
    61   60   68 1   
    62   61   62 1   
    63   61   64 1   
    64   61   69 1   
    65   62   63 2   
    66   62   72 1   
    67   64   65 1   
    68   64   70 1   
    69   64   71 1   
    70   65   66 1   
    71   65   67 1   
    72   72   73 1   
    73   72   76 1   
    74   73   74 1   
    75   73   77 1   
    76   73   78 1   
    77   74   75 2   
    78   74   79 1   
    79   79   80 1   
    80   79   86 1   
    81   80   81 1   
    82   80   83 1   
    83   80   87 1   
    84   81   82 2   
    85   81   93 1   
    86   83   84 1   
    87   83   85 1   
    88   83   88 1   
    89   84   90 1   
    90   84   91 1   
    91   84   92 1   
    92   85   89 1   
    93   93   94 1   
    94   93  101 1   
    95   94   95 1   
    96   94   97 1   
    97   94  102 1   
    98   95   96 2   
    99   95  112 1   
   100   97   98 1   
   101   97   99 1   
   102   97  103 1   
   103   98  100 1   
   104   98  104 1   
   105   98  105 1   
   106   99  106 1   
   107   99  107 1   
   108   99  108 1   
   109  100  109 1   
   110  100  110 1   
   111  100  111 1   
   112  112  113 1   
   113  112  119 1   
   114  113  114 1   
   115  113  116 1   
   116  113  120 1   
   117  114  115 2   
   118  114  126 1   
   119  116  117 1   
   120  116  118 1   
   121  116  121 1   
   122  117  123 1   
   123  117  124 1   
   124  117  125 1   
   125  118  122 1   
   126  126  127 1   
   127  126  133 1   
   128  127  128 1   
   129  127  130 1   
   130  127  134 1   
   131  128  129 2   
   132  128  140 1   
   133  130  131 1   
   134  130  132 1   
   135  130  135 1   
   136  131  137 1   
   137  131  138 1   
   138  131  139 1   
   139  132  136 1   
   140  140  141 1   
   141  140  149 1   
   142  141  142 1   
   143  141  144 1   
   144  141  150 1   
   145  142  143 2   
   146  142  162 1   
   147  144  145 1   
   148  144  151 1   
   149  144  152 1   
   150  145  146 1   
   151  145  153 1   
   152  145  154 1   
   153  146  147 1   
   154  146  155 1   
   155  146  156 1   
   156  147  148 1   
   157  147  157 1   
   158  147  158 1   
   159  148  159 1   
   160  148  160 1   
   161  148  161 1   
   162  162  163 1   
   163  162  171 1   
   164  163  164 1   
   165  163  166 1   
   166  163  172 1   
   167  164  165 2   
   168  164  177 1   
   169  166  167 1   
   170  166  173 1   
   171  166  174 1   
   172  167  168 1   
   173  167  175 1   
   174  167  176 1   
   175  168  169 1   
   176  168  170 1   
   177  177  178 1   
   178  177  182 1   
   179  178  179 1   
   180  178  180 1   
   181  178  181 1   
   182  184  185 1   
   183  184  186 1   
   184  187  188 1   
   185  187  189 1   
   186  190  191 1   
   187  190  192 1   
   188  193  194 1   
   189  193  195 1   
@<TRIPOS>SUBSTRUCTURE
     1 MOL         1 TEMP              0 ****  ****    0 ROOT
