@<TRIPOS>MOLECULE
MOL
  186   183     1     0     0
SMALL
resp


@<TRIPOS>ATOM
      1 C1        -11.4750    6.9970    2.4900 c3        1 MOL     -0.369728
      2 C2        -11.3690    5.6240    1.8460 c         1 MOL      0.696180
      3 O1        -12.3150    4.8830    2.0660 o         1 MOL     -0.573856
      4 H1        -12.4970    7.1590    2.8340 hc        1 MOL      0.093080
      5 H2        -10.7940    7.0560    3.3380 hc        1 MOL      0.093080
      6 H3        -11.2130    7.7630    1.7590 hc        1 MOL      0.093080
      7 N1        -10.3090    5.3510    1.0450 n         1 MOL     -0.272869
      8 C3        -10.2420    4.0640    0.2890 c3        1 MOL     -0.699149
      9 C4         -9.0240    3.2480    0.6310 c         1 MOL      0.941950
     10 O2         -7.9170    3.7340    0.6310 o         1 MOL     -0.749758
     11 C5        -10.4180    4.2930   -1.2230 c3        1 MOL      0.369521
     12 C6         -9.5050    5.3320   -1.8180 c         1 MOL      0.643929
     13 O3         -8.4420    5.6180   -1.2290 o         1 MOL     -0.712636
     14 O4         -9.8260    5.8210   -2.9300 o         1 MOL     -0.712636
     15 H4         -9.5690    6.0280    1.0430 hn        1 MOL      0.180678
     16 H5        -11.1070    3.4480    0.5580 h1        1 MOL      0.185851
     17 H6        -11.4310    4.6510   -1.3880 hc        1 MOL     -0.012639
     18 H7        -10.3570    3.3340   -1.7450 hc        1 MOL     -0.012639
     19 N2         -9.1860    1.9850    0.9930 n         1 MOL     -0.574480
     20 C7         -8.1100    0.9980    1.1660 c3        1 MOL      0.086506
     21 C8         -7.5490    0.3930   -0.1500 c         1 MOL      0.713491
     22 O5         -8.3050   -0.2110   -0.8430 o         1 MOL     -0.541629
     23 C9         -8.5300   -0.0490    2.2250 c3        1 MOL     -0.157784
     24 C10        -7.3760   -1.0280    2.4900 c3        1 MOL     -0.196390
     25 C11        -7.7420   -2.0370    3.6230 c3        1 MOL     -0.155402
     26 C12        -6.5520   -3.0120    3.8120 c3        1 MOL     -0.031191
     27 N3         -6.7490   -3.7230    5.1080 n4        1 MOL     -0.242155
     28 H8        -10.1610    1.7080    1.0160 hn        1 MOL      0.311298
     29 H9         -7.2170    1.5320    1.4780 h1        1 MOL      0.038119
     30 H10        -9.4140   -0.6020    1.9000 hc        1 MOL      0.083057
     31 H11        -8.6870    0.4150    3.1930 hc        1 MOL      0.083057
     32 H12        -6.4210   -0.5550    2.7070 hc        1 MOL      0.100427
     33 H13        -7.3080   -1.5020    1.5120 hc        1 MOL      0.100427
     34 H14        -8.5790   -2.5870    3.1940 hc        1 MOL      0.104796
     35 H15        -8.0870   -1.5830    4.5530 hc        1 MOL      0.104796
     36 H16        -5.6390   -2.4270    3.8430 hx        1 MOL      0.109648
     37 H17        -6.4530   -3.7010    2.9730 hx        1 MOL      0.109648
     38 H18        -5.9450   -4.2600    5.4020 hn        1 MOL      0.249032
     39 H19        -6.7970   -2.9800    5.8010 hn        1 MOL      0.249032
     40 H20        -7.5930   -4.2700    5.1610 hn        1 MOL      0.249032
     41 N4         -6.2740    0.6460   -0.3950 n         1 MOL     -0.532889
     42 C13        -5.6050    0.1640   -1.6270 c3        1 MOL      0.119607
     43 C14        -4.1140    0.0800   -1.4690 c         1 MOL      0.386080
     44 O6         -3.6120    0.4800   -0.5000 o         1 MOL     -0.490972
     45 C15        -5.9330    1.0680   -2.8500 c3        1 MOL      0.127136
     46 C16        -5.8250    2.5240   -2.4800 c         1 MOL      0.800858
     47 O7         -4.7550    3.0390   -2.0910 o         1 MOL     -0.832375
     48 O8         -6.8300    3.1990   -2.5500 o         1 MOL     -0.832375
     49 H21        -5.6390    1.0000    0.3050 hn        1 MOL      0.252408
     50 H22        -5.9010   -0.8500   -1.8900 h1        1 MOL      0.054379
     51 H23        -6.9380    0.7100   -3.0550 hc        1 MOL     -0.010953
     52 H24        -5.2900    0.8270   -3.6960 hc        1 MOL     -0.010953
     53 N5         -3.3290   -0.6330   -2.3600 n         1 MOL     -0.403339
     54 C17        -3.7090   -1.5660   -3.3720 c3        1 MOL     -0.053302
     55 C18        -3.9380   -2.8840   -2.5720 c         1 MOL      0.569743
     56 O9         -4.1520   -2.8940   -1.3260 o         1 MOL     -0.523759
     57 H25        -2.3550   -0.4770   -2.1420 hn        1 MOL      0.316192
     58 H26        -2.8430   -1.7350   -4.0030 h1        1 MOL      0.069218
     59 H27        -4.5940   -1.2820   -3.9400 h1        1 MOL      0.069218
     60 N6         -3.8010   -4.0420   -3.3040 n         1 MOL     -0.410673
     61 C19        -3.5850   -5.4090   -2.8440 c3        1 MOL      0.101576
     62 C20        -2.0960   -5.6580   -2.5270 c         1 MOL      0.533767
     63 O10        -1.1750   -4.9990   -2.9610 o         1 MOL     -0.528527
     64 C21        -4.1480   -6.3440   -3.9030 c3        1 MOL     -0.211907
     65 C22        -5.6090   -6.1140   -4.1340 c         1 MOL      0.707320
     66 O11        -6.1040   -6.0350   -5.2280 o         1 MOL     -0.643811
     67 O12        -6.3030   -5.8030   -3.1890 o         1 MOL     -0.643811
     68 H28        -3.5780   -3.8470   -4.2700 hn        1 MOL      0.268286
     69 H29        -4.1420   -5.6110   -1.9230 h1        1 MOL      0.007169
     70 H30        -3.8550   -7.3340   -3.5550 hc        1 MOL      0.024588
     71 H31        -3.5930   -6.1990   -4.8300 hc        1 MOL      0.024588
     72 N7         -1.9060   -6.6220   -1.6530 n         1 MOL     -0.428115
     73 C23        -0.6230   -6.8220   -0.9740 c3        1 MOL     -0.075847
     74 C24        -0.2570   -5.9460    0.1920 c         1 MOL      0.550936
     75 O13         0.4510   -6.4630    1.0540 o         1 MOL     -0.570070
     76 H32        -2.6470   -7.2840   -1.4800 hn        1 MOL      0.314726
     77 H33         0.1640   -6.8420   -1.7320 h1        1 MOL      0.086292
     78 H34        -0.7020   -7.8640   -0.6530 h1        1 MOL      0.086292
     79 N8         -0.9230   -4.7820    0.3140 n         1 MOL     -0.342090
     80 C25        -0.9490   -3.9340    1.5570 c3        1 MOL     -0.011242
     81 C26        -0.5770   -2.5120    1.2260 c         1 MOL      0.419179
     82 O14        -1.1170   -2.0680    0.2010 o         1 MOL     -0.477297
     83 C27        -2.3160   -3.9430    2.1620 c3        1 MOL      0.314551
     84 C28        -2.5060   -5.3050    2.8710 c3        1 MOL     -0.422380
     85 O15        -2.4990   -2.8600    3.0430 oh        1 MOL     -0.585620
     86 H35        -1.4550   -4.4160   -0.4540 hn        1 MOL      0.234496
     87 H36        -0.2900   -4.3470    2.3200 h1        1 MOL      0.053307
     88 H37        -3.0980   -3.9320    1.4120 h1        1 MOL      0.000243
     89 H38        -2.8740   -2.1720    2.5010 ho        1 MOL      0.389325
     90 H39        -3.5330   -5.2760    3.2210 hc        1 MOL      0.118732
     91 H40        -2.4650   -6.1880    2.2270 hc        1 MOL      0.118732
     92 H41        -1.8930   -5.3850    3.7680 hc        1 MOL      0.118732
     93 N9          0.3400   -1.8920    1.9460 n         1 MOL     -0.114611
     94 C29         0.7840   -0.4980    1.7510 c3        1 MOL     -0.183978
     95 C30         2.1470   -0.4630    0.9040 c         1 MOL      0.615098
     96 O16         2.3520    0.4140    0.1250 o         1 MOL     -0.528968
     97 C31         0.7580    0.2830    3.1250 c3        1 MOL      0.102712
     98 C32        -0.6240    0.3010    3.8160 c3        1 MOL      0.030830
     99 C33         1.2230    1.7370    2.8510 c3        1 MOL     -0.438533
    100 C34        -1.7830    0.7930    2.9640 c3        1 MOL      0.118308
    101 H42         0.7600   -2.2770    2.7810 hn        1 MOL      0.228378
    102 H43         0.0580    0.0620    1.1720 h1        1 MOL      0.107513
    103 H44         1.3990   -0.2530    3.8350 hc        1 MOL      0.009964
    104 H45        -0.6070    0.9640    4.6880 hc        1 MOL     -0.039951
    105 H46        -0.7780   -0.7580    4.0520 hc        1 MOL     -0.039951
    106 H47         1.1880    2.2890    3.7860 hc        1 MOL      0.129620
    107 H48         2.2750    1.8360    2.5740 hc        1 MOL      0.129620
    108 H49         0.5890    2.2090    2.1000 hc        1 MOL      0.129620
    109 H50        -2.6770    0.6520    3.5630 hc        1 MOL     -0.036718
    110 H51        -1.6490    1.7970    2.5690 hc        1 MOL     -0.036718
    111 H52        -1.9260    0.0910    2.1410 hc        1 MOL     -0.036718
    112 N10         2.9480   -1.4560    1.0690 n         1 MOL     -0.356991
    113 C35         4.1810   -1.8910    0.2920 c3        1 MOL     -0.124470
    114 C36         5.2780   -2.2030    1.3530 c         1 MOL      0.579606
    115 O17         5.0240   -2.8760    2.3850 o         1 MOL     -0.497724
    116 C37         3.8450   -3.0800   -0.6300 c3        1 MOL      0.188649
    117 C38         3.2270   -4.2630    0.1410 c3        1 MOL     -0.143496
    118 O18         2.8170   -2.6920   -1.5340 oh        1 MOL     -0.545266
    119 H53         2.6700   -2.1890    1.7110 hn        1 MOL      0.188650
    120 H54         4.4880   -1.1340   -0.4280 h1        1 MOL      0.143822
    121 H55         4.7160   -3.5200   -1.1090 h1        1 MOL      0.013008
    122 H56         2.7780   -3.3260   -2.2540 ho        1 MOL      0.400000
    123 H57         3.8190   -4.4810    1.0240 hc        1 MOL      0.043328
    124 H58         2.1640   -4.0930    0.3610 hc        1 MOL      0.043328
    125 H59         3.2560   -5.0760   -0.5820 hc        1 MOL      0.043328
    126 N11         6.4930   -1.6760    1.1500 n         1 MOL     -0.493527
    127 C39         7.6420   -1.8410    2.0290 c3        1 MOL      0.039493
    128 C40         8.5000   -0.5590    2.2170 c         1 MOL      0.557275
    129 O19         8.5820   -0.0200    3.3560 o         1 MOL     -0.537844
    130 C41         8.5310   -3.0030    1.6440 c3        1 MOL      0.246949
    131 C42         9.8350   -3.1470    2.4290 c3        1 MOL     -0.329973
    132 O20         8.9550   -2.9690    0.2500 oh        1 MOL     -0.618788
    133 H60         6.6850   -1.2170    0.2660 hn        1 MOL      0.268261
    134 H61         7.4200   -2.0430    3.0780 h1        1 MOL      0.086606
    135 H62         7.9660   -3.9310    1.7660 h1        1 MOL      0.043815
    136 H63         8.4190   -3.6580   -0.1520 ho        1 MOL      0.394518
    137 H64        10.5690   -3.6260    1.7790 hc        1 MOL      0.094900
    138 H65        10.2960   -2.2660    2.8770 hc        1 MOL      0.094900
    139 H66         9.6770   -3.6880    3.3580 hc        1 MOL      0.094900
    140 N12         9.1050   -0.0210    1.1460 n         1 MOL     -0.378557
    141 C43         9.8760    1.3140    1.1690 c3        1 MOL     -0.041325
    142 C44         9.6360    2.0730   -0.1550 c         1 MOL      0.464850
    143 O21         9.5380    1.4520   -1.2110 o         1 MOL     -0.482142
    144 C45        11.4080    1.0880    1.3010 c3        1 MOL     -0.275467
    145 C46        12.2070    0.5410    0.0370 c3        1 MOL     -0.027946
    146 C47        11.9240   -0.9400   -0.4010 c3        1 MOL      0.025017
    147 C48        12.5420   -1.1180   -1.8000 c3        1 MOL      0.046774
    148 N13        13.4310   -2.3330   -1.8820 n4        1 MOL     -0.286378
    149 H67         8.9820   -0.4460    0.2380 hn        1 MOL      0.279679
    150 H68         9.6010    1.9750    1.9940 h1        1 MOL      0.125191
    151 H69        11.4710    0.2940    2.0540 hc        1 MOL      0.122201
    152 H70        11.8220    2.0180    1.6820 hc        1 MOL      0.122201
    153 H71        13.2940    0.6170    0.1370 hc        1 MOL      0.040790
    154 H72        11.9870    1.1420   -0.8500 hc        1 MOL      0.040790
    155 H73        10.8620   -1.1990   -0.4240 hc        1 MOL      0.015358
    156 H74        12.4690   -1.5240    0.3440 hc        1 MOL      0.015358
    157 H75        13.1170   -0.2340   -2.0860 hx        1 MOL      0.088137
    158 H76        11.7440   -1.2070   -2.5320 hx        1 MOL      0.088137
    159 H77        14.2530   -2.2360   -1.3070 hn        1 MOL      0.264594
    160 H78        12.9570   -3.1500   -1.5310 hn        1 MOL      0.264594
    161 H79        13.7650   -2.4370   -2.8300 hn        1 MOL      0.264594
    162 N14         9.5220    3.3990   -0.2150 n         1 MOL     -0.505230
    163 C49         9.7090    4.1570   -1.4560 c3        1 MOL      0.421180
    164 C50         8.4840    4.1450   -2.3690 c         1 MOL      0.313611
    165 O22         8.5850    3.6380   -3.4730 o         1 MOL     -0.508250
    166 C51        10.2350    5.5540   -1.1380 c3        1 MOL     -0.076012
    167 C52        11.6530    5.5060   -0.6520 c3        1 MOL     -0.076968
    168 C53        12.2530    6.8870   -0.6510 c         1 MOL      0.721167
    169 O23        13.4150    6.9810   -1.0670 o         1 MOL     -0.683149
    170 O24        11.5660    7.8810   -0.3090 o         1 MOL     -0.683149
    171 H80         9.5770    3.9650    0.6220 hn        1 MOL      0.323372
    172 H81        10.4040    3.5970   -2.0830 h1        1 MOL     -0.010353
    173 H82         9.6920    6.0210   -0.3150 hc        1 MOL      0.020761
    174 H83        10.0820    6.1880   -2.0030 hc        1 MOL      0.020761
    175 H84        12.3110    4.8340   -1.2070 hc        1 MOL     -0.028507
    176 H85        11.6950    5.1940    0.3980 hc        1 MOL     -0.028507
    177 N15         7.3150    4.6630   -1.8560 n         1 MOL     -0.324091
    178 C54         6.9930    5.1350   -0.5550 c3        1 MOL      0.003501
    179 H86         6.1790    4.5390   -0.1440 h1        1 MOL      0.029365
    180 H87         7.8680    5.0500    0.0890 h1        1 MOL      0.029365
    181 H88         6.6850    6.1800   -0.6130 h1        1 MOL      0.029365
    182 H89         6.5950    4.6470   -2.5740 hn        1 MOL      0.272799
    183 Ca1        -5.9870    5.0770   -0.7890 Ca        1 MOL      1.716305
    184 O25        -4.3970    4.0140    0.9420 oh        1 MOL     -0.766980
    185 H90        -4.4880    3.1730    1.3920 ho        1 MOL      0.390141
    186 H91        -3.6730    4.4390    1.3810 ho        1 MOL      0.390141
@<TRIPOS>BOND
     1    1    2 1   
     2    1    4 1   
     3    1    5 1   
     4    1    6 1   
     5    2    3 2   
     6    2    7 1   
     7    7    8 1   
     8    7   15 1   
     9    8    9 1   
    10    8   11 1   
    11    8   16 1   
    12    9   10 2   
    13    9   19 1   
    14   11   12 1   
    15   11   17 1   
    16   11   18 1   
    17   12   13 1   
    18   12   14 1   
    19   19   20 1   
    20   19   28 1   
    21   20   21 1   
    22   20   23 1   
    23   20   29 1   
    24   21   22 2   
    25   21   41 1   
    26   23   24 1   
    27   23   30 1   
    28   23   31 1   
    29   24   25 1   
    30   24   32 1   
    31   24   33 1   
    32   25   26 1   
    33   25   34 1   
    34   25   35 1   
    35   26   27 1   
    36   26   36 1   
    37   26   37 1   
    38   27   38 1   
    39   27   39 1   
    40   27   40 1   
    41   41   42 1   
    42   41   49 1   
    43   42   43 1   
    44   42   45 1   
    45   42   50 1   
    46   43   44 2   
    47   43   53 1   
    48   45   46 1   
    49   45   51 1   
    50   45   52 1   
    51   46   47 1   
    52   46   48 1   
    53   53   54 1   
    54   53   57 1   
    55   54   55 1   
    56   54   58 1   
    57   54   59 1   
    58   55   56 2   
    59   55   60 1   
    60   60   61 1   
    61   60   68 1   
    62   61   62 1   
    63   61   64 1   
    64   61   69 1   
    65   62   63 2   
    66   62   72 1   
    67   64   65 1   
    68   64   70 1   
    69   64   71 1   
    70   65   66 1   
    71   65   67 1   
    72   72   73 1   
    73   72   76 1   
    74   73   74 1   
    75   73   77 1   
    76   73   78 1   
    77   74   75 2   
    78   74   79 1   
    79   79   80 1   
    80   79   86 1   
    81   80   81 1   
    82   80   83 1   
    83   80   87 1   
    84   81   82 2   
    85   81   93 1   
    86   83   84 1   
    87   83   85 1   
    88   83   88 1   
    89   84   90 1   
    90   84   91 1   
    91   84   92 1   
    92   85   89 1   
    93   93   94 1   
    94   93  101 1   
    95   94   95 1   
    96   94   97 1   
    97   94  102 1   
    98   95   96 2   
    99   95  112 1   
   100   97   98 1   
   101   97   99 1   
   102   97  103 1   
   103   98  100 1   
   104   98  104 1   
   105   98  105 1   
   106   99  106 1   
   107   99  107 1   
   108   99  108 1   
   109  100  109 1   
   110  100  110 1   
   111  100  111 1   
   112  112  113 1   
   113  112  119 1   
   114  113  114 1   
   115  113  116 1   
   116  113  120 1   
   117  114  115 2   
   118  114  126 1   
   119  116  117 1   
   120  116  118 1   
   121  116  121 1   
   122  117  123 1   
   123  117  124 1   
   124  117  125 1   
   125  118  122 1   
   126  126  127 1   
   127  126  133 1   
   128  127  128 1   
   129  127  130 1   
   130  127  134 1   
   131  128  129 2   
   132  128  140 1   
   133  130  131 1   
   134  130  132 1   
   135  130  135 1   
   136  131  137 1   
   137  131  138 1   
   138  131  139 1   
   139  132  136 1   
   140  140  141 1   
   141  140  149 1   
   142  141  142 1   
   143  141  144 1   
   144  141  150 1   
   145  142  143 2   
   146  142  162 1   
   147  144  145 1   
   148  144  151 1   
   149  144  152 1   
   150  145  146 1   
   151  145  153 1   
   152  145  154 1   
   153  146  147 1   
   154  146  155 1   
   155  146  156 1   
   156  147  148 1   
   157  147  157 1   
   158  147  158 1   
   159  148  159 1   
   160  148  160 1   
   161  148  161 1   
   162  162  163 1   
   163  162  171 1   
   164  163  164 1   
   165  163  166 1   
   166  163  172 1   
   167  164  165 2   
   168  164  177 1   
   169  166  167 1   
   170  166  173 1   
   171  166  174 1   
   172  167  168 1   
   173  167  175 1   
   174  167  176 1   
   175  168  169 1   
   176  168  170 1   
   177  177  178 1   
   178  177  182 1   
   179  178  179 1   
   180  178  180 1   
   181  178  181 1   
   182  184  185 1   
   183  184  186 1   
@<TRIPOS>SUBSTRUCTURE
     1 MOL         1 TEMP              0 ****  ****    0 ROOT
