@<TRIPOS>MOLECULE
MOL
  178   175     1     0     0
SMALL
resp


@<TRIPOS>ATOM
      1 C1          0.9990   -6.1670    3.5250 c3        1 MOL     -0.416138
      2 C2          2.3930   -6.3040    2.9740 c         1 MOL      0.733468
      3 O1          2.7060   -7.2810    2.2890 o         1 MOL     -0.618874
      4 H1          0.8620   -5.1590    3.9160 hc        1 MOL      0.102689
      5 H2          0.2740   -6.3510    2.7320 hc        1 MOL      0.102689
      6 H3          0.8520   -6.8890    4.3270 hc        1 MOL      0.102689
      7 N1          3.3080   -5.3930    3.2660 n         1 MOL     -0.548812
      8 C3          4.6230   -5.2540    2.5530 c3        1 MOL      0.063430
      9 C4          4.4940   -4.3350    1.2760 c         1 MOL      0.590555
     10 O2          3.8610   -3.2770    1.2700 o         1 MOL     -0.547871
     11 C5          5.6480   -4.6100    3.4290 c3        1 MOL     -0.110103
     12 C6          7.0180   -4.4710    2.6060 c         1 MOL      0.659040
     13 O3          7.3370   -5.4460    1.8800 o         1 MOL     -0.702189
     14 O4          7.7890   -3.4980    2.9060 o         1 MOL     -0.702189
     15 H4          3.1540   -4.7070    4.0000 hn        1 MOL      0.279665
     16 H5          5.0230   -6.2610    2.4260 h1        1 MOL      0.080120
     17 H6          5.8110   -5.2340    4.3100 hc        1 MOL      0.001540
     18 H7          5.3720   -3.6160    3.7940 hc        1 MOL      0.001540
     19 N2          5.0660   -4.9040    0.1730 n         1 MOL     -0.515582
     20 C7          4.9330   -4.3670   -1.2170 c3        1 MOL      0.154000
     21 C8          3.4510   -4.2210   -1.6890 c         1 MOL      0.583382
     22 O5          2.5640   -5.0190   -1.4770 o         1 MOL     -0.579321
     23 C9          5.7790   -5.1660   -2.1710 c3        1 MOL     -0.565174
     24 H8          5.4580   -5.8320    0.2160 hn        1 MOL      0.315956
     25 H9          5.3810   -3.3710   -1.2060 h1        1 MOL      0.149595
     26 H10         6.7960   -5.2550   -1.7850 hc        1 MOL      0.153609
     27 H11         5.4850   -6.2240   -2.1850 hc        1 MOL      0.153609
     28 H12         5.7100   -4.7250   -3.1590 hc        1 MOL      0.153609
     29 N3          3.1720   -3.1420   -2.4460 n         1 MOL     -0.326259
     30 C10         4.0900   -2.3240   -3.2260 c3        1 MOL     -0.010830
     31 C11         4.2020   -0.9460   -2.5880 c         1 MOL      0.385380
     32 O6          3.5410   -0.6960   -1.5690 o         1 MOL     -0.481746
     33 C12         3.5790   -2.2850   -4.6590 c3        1 MOL     -0.153128
     34 C13         2.1440   -1.7730   -4.8260 c         1 MOL      0.616804
     35 O7          1.6470   -1.1260   -3.8580 o         1 MOL     -0.646546
     36 O8          1.6380   -1.8370   -5.9850 o         1 MOL     -0.646546
     37 H13         2.2040   -3.0900   -2.7030 hn        1 MOL      0.237233
     38 H14         5.1180   -2.6970   -3.2380 h1        1 MOL      0.041865
     39 H15         3.5720   -3.3030   -5.0380 hc        1 MOL      0.031869
     40 H16         4.3820   -1.8830   -5.2730 hc        1 MOL      0.031869
     41 N4          5.1390   -0.1820   -3.0840 n         1 MOL     -0.347547
     42 C14         5.7150    1.0610   -2.5660 c3        1 MOL     -0.238353
     43 C15         6.8290    0.8540   -1.4870 c         1 MOL      0.662439
     44 O9          7.3600   -0.2260   -1.1950 o         1 MOL     -0.506221
     45 H17         5.5060   -0.3560   -4.0080 hn        1 MOL      0.301247
     46 H18         4.9560    1.4950   -1.9130 h1        1 MOL      0.139603
     47 H19         5.9270    1.8360   -3.3020 h1        1 MOL      0.139603
     48 N5          7.2730    1.8940   -0.7750 n         1 MOL     -0.755402
     49 C16         6.5720    3.1460   -0.4990 c3        1 MOL      0.656641
     50 C17         5.9820    3.1470    0.9240 c         1 MOL      0.295377
     51 O10         6.2910    2.2470    1.7210 o         1 MOL     -0.449188
     52 C18         7.6220    4.2950   -0.6530 c3        1 MOL     -0.582470
     53 C19         7.0260    5.6740   -0.7770 c         1 MOL      0.755964
     54 N6          7.7840    6.6980   -0.9100 n         1 MOL     -0.804843
     55 O11         5.8290    5.9210   -0.7570 o         1 MOL     -0.560380
     56 H20         8.1720    1.7270   -0.3500 hn        1 MOL      0.368965
     57 H21         5.7400    3.2890   -1.1920 h1        1 MOL     -0.101203
     58 H22         8.3570    4.1130   -1.4310 hc        1 MOL      0.133370
     59 H23         8.2790    4.2880    0.2120 hc        1 MOL      0.133370
     60 H24         8.7620    6.4570   -0.9880 hn        1 MOL      0.379260
     61 H25         7.3600    7.6140   -0.9620 hn        1 MOL      0.379260
     62 N7          5.2850    4.1910    1.3630 n         1 MOL     -0.258922
     63 C20         4.7970    4.4810    2.7040 c3        1 MOL     -0.000799
     64 C21         3.2510    4.8110    2.7950 c         1 MOL      0.525578
     65 O12         2.8870    5.2860    3.8960 o         1 MOL     -0.552649
     66 H26         5.1920    4.9810    0.7390 hn        1 MOL      0.211324
     67 H27         5.3340    5.3630    3.0590 h1        1 MOL      0.056738
     68 H28         4.9600    3.6360    3.3720 h1        1 MOL      0.056738
     69 N8          2.4050    4.5810    1.7490 n         1 MOL     -0.263005
     70 C22         0.9600    5.0050    1.6920 c3        1 MOL      0.041070
     71 C23        -0.1280    3.8870    1.4450 c         1 MOL      0.477363
     72 O13         0.1240    2.7150    1.0990 o         1 MOL     -0.539757
     73 C24         0.6610    6.1720    0.7640 c3        1 MOL      0.473497
     74 C25         1.5000    7.3810    1.1350 c3        1 MOL     -0.374808
     75 O14         0.9840    5.9590   -0.6070 oh        1 MOL     -0.629232
     76 H29         2.8060    4.0890    0.9520 hn        1 MOL      0.133009
     77 H30         0.6620    5.2190    2.7210 h1        1 MOL      0.035535
     78 H31        -0.3970    6.4210    0.8180 h1        1 MOL     -0.026859
     79 H32         0.1840    6.0700   -1.1290 ho        1 MOL      0.407461
     80 H33         1.2240    8.0760    0.3430 hc        1 MOL      0.073619
     81 H34         1.1820    7.6890    2.1310 hc        1 MOL      0.073619
     82 H35         2.5600    7.1420    1.2010 hc        1 MOL      0.073619
     83 N9         -1.3820    4.3060    1.7420 n         1 MOL     -0.387068
     84 C26        -2.5820    3.5280    1.4460 c3        1 MOL     -0.005017
     85 C27        -2.9090    3.7080   -0.0980 c         1 MOL      0.338439
     86 O15        -3.0330    4.9040   -0.4520 o         1 MOL     -0.578612
     87 C28        -3.7710    3.8640    2.3190 c3        1 MOL      0.074837
     88 C29        -5.0130    2.9980    1.9020 c3        1 MOL      0.002486
     89 C30        -3.4460    3.7050    3.8020 c3        1 MOL     -0.063354
     90 C31        -6.2770    3.5130    2.5980 c3        1 MOL     -0.130117
     91 H36        -1.5240    5.2540    2.0660 hn        1 MOL      0.252180
     92 H37        -2.3790    2.4720    1.6440 h1        1 MOL      0.237661
     93 H38        -3.9830    4.9180    2.1320 hc        1 MOL      0.010901
     94 H39        -4.6710    1.9620    1.9500 hc        1 MOL      0.007014
     95 H40        -5.2260    3.0550    0.8380 hc        1 MOL      0.007014
     96 H41        -4.0780    4.3380    4.4200 hc        1 MOL      0.000387
     97 H42        -3.5250    2.6360    4.0060 hc        1 MOL      0.000387
     98 H43        -2.4190    3.9890    4.0680 hc        1 MOL      0.000387
     99 H44        -6.3920    4.5960    2.5270 hc        1 MOL      0.027510
    100 H45        -7.1260    3.0220    2.1220 hc        1 MOL      0.027510
    101 H46        -6.2720    3.2550    3.6530 hc        1 MOL      0.027510
    102 N10        -3.0560    2.6310   -0.8490 n         1 MOL     -0.005224
    103 C32        -3.5500    2.6220   -2.2320 c3        1 MOL      0.037827
    104 C33        -4.6890    1.6420   -2.5110 c         1 MOL      0.382820
    105 O16        -5.1290    1.3230   -3.6050 o         1 MOL     -0.507639
    106 C34        -2.4100    2.5210   -3.2150 c3        1 MOL     -0.183827
    107 C35        -1.2600    1.4970   -2.9140 c         1 MOL      0.942237
    108 O17        -0.2010    1.8910   -2.4930 o         1 MOL     -0.867613
    109 O18        -1.2680    0.2790   -3.0710 o         1 MOL     -0.867613
    110 H47        -2.8030    1.7430   -0.4360 hn        1 MOL      0.045788
    111 H48        -3.9900    3.6100   -2.3820 h1        1 MOL      0.076122
    112 H49        -1.9310    3.5010   -3.2010 hc        1 MOL      0.035888
    113 H50        -2.8370    2.3690   -4.2140 hc        1 MOL      0.035888
    114 N11        -5.1350    0.9700   -1.4120 n         1 MOL     -0.370093
    115 C36        -6.2000   -0.0410   -1.4230 c3        1 MOL      0.469322
    116 C37        -5.8830   -1.3170   -0.5650 c         1 MOL      0.193935
    117 O19        -6.5920   -1.5890    0.4350 o         1 MOL     -0.471775
    118 C38        -7.4070    0.7290   -0.9770 c3        1 MOL     -0.381629
    119 C39        -8.6970    0.0260   -1.4720 ca        1 MOL      0.214159
    120 C40        -9.3130   -0.8810   -0.6310 ca        1 MOL     -0.267955
    121 C41        -9.1290    0.2850   -2.8020 ca        1 MOL     -0.267955
    122 C42       -10.4600   -1.5360   -1.0700 ca        1 MOL     -0.020125
    123 C43       -10.1810   -0.4700   -3.2590 ca        1 MOL     -0.020125
    124 C44       -10.9310   -1.3270   -2.3930 ca        1 MOL     -0.240766
    125 H51        -4.7290    1.2280   -0.5270 hn        1 MOL      0.110323
    126 H52        -6.2790   -0.3080   -2.4820 h1        1 MOL     -0.014368
    127 H53        -7.3400    1.6160   -1.6050 hc        1 MOL      0.113053
    128 H54        -7.3450    0.9810    0.0840 hc        1 MOL      0.113053
    129 H55        -8.9340   -1.1280    0.3450 ha        1 MOL      0.155978
    130 H56        -8.4700    0.8390   -3.4520 ha        1 MOL      0.155978
    131 H57       -11.0300   -2.2360   -0.4590 ha        1 MOL      0.080593
    132 H58       -10.4760   -0.4020   -4.2940 ha        1 MOL      0.080593
    133 H59       -11.7620   -1.8480   -2.8340 ha        1 MOL      0.117335
    134 N12        -4.8300   -2.0930   -0.9220 n         1 MOL     -0.001687
    135 C45        -4.4590   -3.3380   -0.2160 c3        1 MOL     -0.008624
    136 C46        -4.2130   -3.2760    1.3660 c         1 MOL      0.147864
    137 O20        -4.3100   -4.2770    2.0570 o         1 MOL     -0.464231
    138 C47        -3.3350   -3.8780   -1.0690 c3        1 MOL      0.071012
    139 C48        -3.4650   -3.3300   -2.4090 c3        1 MOL      0.011795
    140 C49        -4.0540   -2.0060   -2.1130 c3        1 MOL     -0.119487
    141 H60        -5.3230   -3.9600   -0.4490 h1        1 MOL      0.070085
    142 H61        -2.3920   -3.5400   -0.6410 hc        1 MOL      0.000288
    143 H62        -3.3300   -4.9640   -1.1740 hc        1 MOL      0.000288
    144 H63        -2.4980   -3.3820   -2.9210 hc        1 MOL      0.002767
    145 H64        -4.2240   -3.9250   -2.9170 hc        1 MOL      0.002767
    146 H65        -3.1650   -1.4090   -1.9020 h1        1 MOL      0.091429
    147 H66        -4.6630   -1.7200   -2.9700 h1        1 MOL      0.091429
    148 N13        -3.8590   -2.0900    1.8460 n         1 MOL      0.226594
    149 C50        -3.4500   -1.7690    3.2060 c3        1 MOL     -0.241927
    150 C51        -4.6060   -1.7850    4.1630 c         1 MOL      0.483343
    151 O21        -4.6220   -2.4760    5.1830 o         1 MOL     -0.536769
    152 C52        -2.6030   -0.4090    3.3140 c3        1 MOL     -0.010217
    153 C53        -1.5230   -0.2360    2.2110 c3        1 MOL     -0.082453
    154 C54        -2.1520    0.0380    0.8130 c         1 MOL      0.104820
    155 O22        -1.4120   -0.1310   -0.1560 o         1 MOL     -0.378136
    156 O23        -3.3300    0.3520    0.6890 o         1 MOL     -0.378136
    157 H67        -3.7970   -1.3370    1.1720 hn        1 MOL      0.127116
    158 H68        -2.8050   -2.5070    3.7060 h1        1 MOL      0.093597
    159 H69        -2.1060   -0.2880    4.2780 hc        1 MOL      0.020247
    160 H70        -3.2640    0.4470    3.1760 hc        1 MOL      0.020247
    161 H71        -0.8780   -1.1190    2.1770 hc        1 MOL      0.043842
    162 H72        -0.8800    0.6000    2.4950 hc        1 MOL      0.043842
    163 N14        -5.6330   -1.0290    3.7430 n         1 MOL     -0.208017
    164 C55        -6.9480   -1.0240    4.3920 c3        1 MOL     -0.132318
    165 H73        -7.1740   -0.0180    4.7460 h1        1 MOL      0.070740
    166 H74        -7.7090   -1.3360    3.6760 h1        1 MOL      0.070740
    167 H75        -6.9390   -1.7130    5.2360 h1        1 MOL      0.070740
    168 H76        -5.5000   -0.5840    2.8380 hn        1 MOL      0.176667
    169 Ca1         0.7200   -0.3720   -1.5720 Ca        1 MOL      1.760535
    170 O24         1.3360   -1.7880    0.5540 oh        1 MOL     -0.898992
    171 H77         0.7850   -1.9280    1.3210 ho        1 MOL      0.430736
    172 H78         2.1560   -2.2360    0.7560 ho        1 MOL      0.430736
    173 O25         0.1170   -3.0990   -1.6540 oh        1 MOL     -0.898992
    174 H79        -0.5180   -3.3440   -2.3250 ho        1 MOL      0.430736
    175 H80         0.3970   -3.9350   -1.2820 ho        1 MOL      0.430736
    176 O26         1.9630    1.6090   -0.4180 oh        1 MOL     -0.898992
    177 H81         1.3510    2.0790    0.1480 ho        1 MOL      0.430736
    178 H82         2.6050    2.2720   -0.6730 ho        1 MOL      0.430736
@<TRIPOS>BOND
     1    1    2 1   
     2    1    4 1   
     3    1    5 1   
     4    1    6 1   
     5    2    3 2   
     6    2    7 1   
     7    7    8 1   
     8    7   15 1   
     9    8    9 1   
    10    8   11 1   
    11    8   16 1   
    12    9   10 2   
    13    9   19 1   
    14   11   12 1   
    15   11   17 1   
    16   11   18 1   
    17   12   13 1   
    18   12   14 1   
    19   19   20 1   
    20   19   24 1   
    21   20   21 1   
    22   20   23 1   
    23   20   25 1   
    24   21   22 2   
    25   21   29 1   
    26   23   26 1   
    27   23   27 1   
    28   23   28 1   
    29   29   30 1   
    30   29   37 1   
    31   30   31 1   
    32   30   33 1   
    33   30   38 1   
    34   31   32 2   
    35   31   41 1   
    36   33   34 1   
    37   33   39 1   
    38   33   40 1   
    39   34   35 1   
    40   34   36 1   
    41   41   42 1   
    42   41   45 1   
    43   42   43 1   
    44   42   46 1   
    45   42   47 1   
    46   43   44 2   
    47   43   48 1   
    48   48   49 1   
    49   48   56 1   
    50   49   50 1   
    51   49   52 1   
    52   49   57 1   
    53   50   51 2   
    54   50   62 1   
    55   52   53 1   
    56   52   58 1   
    57   52   59 1   
    58   53   54 1   
    59   53   55 2   
    60   54   60 1   
    61   54   61 1   
    62   62   63 1   
    63   62   66 1   
    64   63   64 1   
    65   63   67 1   
    66   63   68 1   
    67   64   65 2   
    68   64   69 1   
    69   69   70 1   
    70   69   76 1   
    71   70   71 1   
    72   70   73 1   
    73   70   77 1   
    74   71   72 2   
    75   71   83 1   
    76   73   74 1   
    77   73   75 1   
    78   73   78 1   
    79   74   80 1   
    80   74   81 1   
    81   74   82 1   
    82   75   79 1   
    83   83   84 1   
    84   83   91 1   
    85   84   85 1   
    86   84   87 1   
    87   84   92 1   
    88   85   86 2   
    89   85  102 1   
    90   87   88 1   
    91   87   89 1   
    92   87   93 1   
    93   88   90 1   
    94   88   94 1   
    95   88   95 1   
    96   89   96 1   
    97   89   97 1   
    98   89   98 1   
    99   90   99 1   
   100   90  100 1   
   101   90  101 1   
   102  102  103 1   
   103  102  110 1   
   104  103  104 1   
   105  103  106 1   
   106  103  111 1   
   107  104  105 2   
   108  104  114 1   
   109  106  107 1   
   110  106  112 1   
   111  106  113 1   
   112  107  108 1   
   113  107  109 1   
   114  114  115 1   
   115  114  125 1   
   116  115  116 1   
   117  115  118 1   
   118  115  126 1   
   119  116  117 2   
   120  116  134 1   
   121  118  119 1   
   122  118  127 1   
   123  118  128 1   
   124  119  120 ar  
   125  119  121 ar  
   126  120  122 ar  
   127  120  129 1   
   128  121  123 ar  
   129  121  130 1   
   130  122  124 ar  
   131  122  131 1   
   132  123  124 ar  
   133  123  132 1   
   134  124  133 1   
   135  134  135 1   
   136  134  140 1   
   137  135  136 1   
   138  135  138 1   
   139  135  141 1   
   140  136  137 2   
   141  136  148 1   
   142  138  139 1   
   143  138  142 1   
   144  138  143 1   
   145  139  140 1   
   146  139  144 1   
   147  139  145 1   
   148  140  146 1   
   149  140  147 1   
   150  148  149 1   
   151  148  157 1   
   152  149  150 1   
   153  149  152 1   
   154  149  158 1   
   155  150  151 2   
   156  150  163 1   
   157  152  153 1   
   158  152  159 1   
   159  152  160 1   
   160  153  154 1   
   161  153  161 1   
   162  153  162 1   
   163  154  155 1   
   164  154  156 1   
   165  163  164 1   
   166  163  168 1   
   167  164  165 1   
   168  164  166 1   
   169  164  167 1   
   170  170  171 1   
   171  170  172 1   
   172  173  174 1   
   173  173  175 1   
   174  176  177 1   
   175  176  178 1   
@<TRIPOS>SUBSTRUCTURE
     1 MOL         1 TEMP              0 ****  ****    0 ROOT
