@<TRIPOS>MOLECULE
MOL
  198   191     1     0     0
SMALL
resp


@<TRIPOS>ATOM
      1 C1          4.5130   -3.2960   -2.3830 c3        1 MOL     -0.287496
      2 C2          3.3300   -3.5300   -1.4300 c         1 MOL      0.729129
      3 O1          2.7210   -2.6450   -0.8920 o         1 MOL     -0.499840
      4 H1          5.2380   -4.1010   -2.2660 hc        1 MOL      0.049346
      5 H2          4.1540   -3.2770   -3.4110 hc        1 MOL      0.049346
      6 H3          4.9870   -2.3430   -2.1460 hc        1 MOL      0.049346
      7 N1          2.9910   -4.7700   -1.1780 n         1 MOL     -0.799763
      8 C3          1.8410   -5.2260   -0.3480 c3        1 MOL     -0.052259
      9 C4          0.4750   -4.5970   -0.6190 c         1 MOL      0.862461
     10 O2         -0.3230   -4.4180    0.2850 o         1 MOL     -0.540384
     11 C5          2.1370   -5.3220    1.1610 c3        1 MOL     -0.737051
     12 C6          3.5720   -5.7060    1.4540 c         1 MOL      0.915636
     13 O3          4.4830   -4.8780    1.6500 o         1 MOL     -0.680446
     14 O4          3.7840   -6.9030    1.7090 o         1 MOL     -0.680446
     15 H4          3.6080   -5.3950   -1.6830 hn        1 MOL      0.389358
     16 H5          1.6710   -6.2650   -0.6580 h1        1 MOL      0.134172
     17 H6          1.4760   -6.0280    1.6550 hc        1 MOL      0.229163
     18 H7          2.0200   -4.3320    1.6030 hc        1 MOL      0.229163
     19 N2          0.1050   -4.3290   -1.8720 n         1 MOL     -0.617602
     20 C7         -1.2010   -3.7760   -2.3220 c3        1 MOL     -0.339381
     21 C8         -2.1700   -4.9030   -2.8210 c         1 MOL      0.662479
     22 O5         -1.7540   -5.9530   -3.3130 o         1 MOL     -0.603316
     23 C9         -1.0180   -2.6320   -3.3800 c3        1 MOL      0.148571
     24 C10        -0.4090   -3.1950   -4.6800 c3        1 MOL      0.058289
     25 C11        -0.3090   -1.3690   -2.7870 c3        1 MOL     -0.236242
     26 C12        -0.1890   -2.1780   -5.8310 c3        1 MOL     -0.232201
     27 H8          0.8090   -4.4940   -2.5830 hn        1 MOL      0.351523
     28 H9         -1.6690   -3.1890   -1.5250 h1        1 MOL      0.126612
     29 H10        -2.0160   -2.3400   -3.7130 hc        1 MOL      0.052959
     30 H11        -1.1260   -3.9560   -4.9940 hc        1 MOL      0.017562
     31 H12         0.5840   -3.6000   -4.5330 hc        1 MOL      0.017562
     32 H13         0.7020   -1.6970   -2.5350 hc        1 MOL      0.088974
     33 H14        -0.1650   -0.5640   -3.4970 hc        1 MOL      0.088974
     34 H15        -0.7230   -0.9920   -1.8520 hc        1 MOL      0.088974
     35 H16         0.2660   -1.2500   -5.4680 hc        1 MOL      0.047482
     36 H17         0.5250   -2.5710   -6.5530 hc        1 MOL      0.047482
     37 H18        -1.1500   -2.0800   -6.3170 hc        1 MOL      0.047482
     38 N3         -3.4910   -4.7230   -2.7020 n         1 MOL     -0.388925
     39 C13        -4.2270   -3.5140   -2.3360 c3        1 MOL      0.111515
     40 C14        -4.5940   -3.3970   -0.8440 c         1 MOL      0.460947
     41 O6         -4.8290   -2.2390   -0.3830 o         1 MOL     -0.349202
     42 C15        -5.5030   -3.3000   -3.1800 c3        1 MOL     -0.331603
     43 C16        -6.2670   -4.6100   -3.2620 c         1 MOL      0.745174
     44 O7         -6.9400   -4.9810   -2.2990 o         1 MOL     -0.705950
     45 O8         -6.0730   -5.2860   -4.2520 o         1 MOL     -0.705950
     46 H19        -3.9920   -5.5510   -2.9710 hn        1 MOL      0.264724
     47 H20        -3.5950   -2.6510   -2.5510 h1        1 MOL      0.029437
     48 H21        -5.1890   -3.0680   -4.1950 hc        1 MOL      0.068707
     49 H22        -6.0440   -2.4920   -2.6910 hc        1 MOL      0.068707
     50 N4         -4.3690   -4.4920   -0.0570 n         1 MOL     -0.241740
     51 C17        -4.5000   -4.3740    1.4350 c3        1 MOL     -0.255362
     52 C18        -5.8460   -3.8060    1.8960 c         1 MOL      0.546566
     53 O9         -6.9040   -4.3730    1.7010 o         1 MOL     -0.562897
     54 H23        -4.0160   -5.3610   -0.4490 hn        1 MOL      0.268491
     55 H24        -3.7660   -3.7140    1.8820 h1        1 MOL      0.109782
     56 H25        -4.5540   -5.3950    1.8300 h1        1 MOL      0.109782
     57 N5         -5.8890   -2.6880    2.5270 n         1 MOL     -0.490985
     58 C19        -7.1140   -1.8780    2.8890 c3        1 MOL      0.205030
     59 C20        -7.7130   -0.9610    1.7540 c         1 MOL      0.322028
     60 O10        -8.8180   -0.4440    1.8470 o         1 MOL     -0.567478
     61 C21        -6.8180   -1.2590    4.2600 c3        1 MOL     -0.191113
     62 C22        -5.8300   -0.1700    4.2850 c         1 MOL      0.630637
     63 O11        -5.3210    0.1730    3.1770 o         1 MOL     -0.668879
     64 O12        -5.1960    0.0660    5.3840 o         1 MOL     -0.668879
     65 H26        -4.9820   -2.3440    2.7790 hn        1 MOL      0.346754
     66 H27        -7.9030   -2.6220    3.0060 h1        1 MOL      0.052044
     67 H28        -6.5780   -2.0310    4.9840 hc        1 MOL      0.026457
     68 H29        -7.7640   -0.8740    4.6530 hc        1 MOL      0.026457
     69 N6         -7.0790   -0.8870    0.5700 n         1 MOL      0.249334
     70 C23        -7.6670   -0.2800   -0.6190 c3        1 MOL     -0.527206
     71 C24        -7.5000    1.2200   -0.9090 c         1 MOL      0.769825
     72 O13        -7.9390    1.6190   -2.0090 o         1 MOL     -0.587619
     73 H30        -6.2150   -1.3870    0.4750 hn        1 MOL     -0.060811
     74 H31        -8.7430   -0.4200   -0.6750 h1        1 MOL      0.166755
     75 H32        -7.1580   -0.8140   -1.4200 h1        1 MOL      0.166755
     76 N7         -6.8770    1.9570    0.0030 n         1 MOL     -0.491692
     77 C25        -6.5620    3.3950   -0.1020 c3        1 MOL     -0.006405
     78 C26        -5.4590    3.5800   -1.1210 c         1 MOL      0.379977
     79 O14        -5.3070    4.5460   -1.8690 o         1 MOL     -0.534296
     80 C27        -7.7050    4.3820   -0.3350 c3        1 MOL      0.215789
     81 C28        -8.6730    4.3470    0.8090 c3        1 MOL     -0.167659
     82 C29        -9.7780    5.3670    0.6650 c         1 MOL      0.548578
     83 N8        -11.0080    4.9320    0.3620 n         1 MOL     -0.726676
     84 O15        -9.5860    6.5810    0.7000 o         1 MOL     -0.554078
     85 H33        -6.3350    1.4630    0.7030 hn        1 MOL      0.233355
     86 H34        -6.0690    3.7950    0.7780 h1        1 MOL      0.120242
     87 H35        -8.2390    3.9220   -1.1600 hc        1 MOL     -0.004375
     88 H36        -7.4260    5.4190   -0.5240 hc        1 MOL     -0.004375
     89 H37        -8.1370    4.6580    1.7010 hc        1 MOL      0.044145
     90 H38        -9.1650    3.3730    0.8670 hc        1 MOL      0.044145
     91 H39       -11.2150    3.9580    0.4430 hn        1 MOL      0.336803
     92 H40       -11.7300    5.6520    0.3780 hn        1 MOL      0.336803
     93 N9         -4.6040    2.5650   -1.3030 n         1 MOL     -0.318912
     94 C30        -3.4370    2.6040   -2.1790 c3        1 MOL      0.100216
     95 C31        -2.0910    2.3120   -1.4550 c         1 MOL      0.423033
     96 O16        -1.0070    2.5950   -2.0030 o         1 MOL     -0.533530
     97 C32        -3.6870    1.5770   -3.3350 c3        1 MOL      0.209196
     98 C33        -4.3210    0.2920   -2.8960 c3        1 MOL     -0.263203
     99 C34        -4.5930    2.2570   -4.3990 c3        1 MOL     -0.263203
    100 H41        -4.7310    1.7220   -0.7600 hn        1 MOL      0.273672
    101 H42        -3.4160    3.5670   -2.6830 h1        1 MOL      0.098102
    102 H43        -2.7130    1.4420   -3.8200 hc        1 MOL     -0.035712
    103 H44        -3.9970   -0.0330   -1.9120 hc        1 MOL      0.059597
    104 H45        -5.4030    0.2980   -2.8850 hc        1 MOL      0.059597
    105 H46        -4.0260   -0.4590   -3.6360 hc        1 MOL      0.059597
    106 H47        -4.8530    1.6870   -5.2880 hc        1 MOL      0.059597
    107 H48        -5.5490    2.4970   -3.9260 hc        1 MOL      0.059597
    108 H49        -4.0740    3.1570   -4.7490 hc        1 MOL      0.059597
    109 N10        -2.1260    1.6570   -0.2940 n         1 MOL     -0.621423
    110 C35        -0.8310    1.3980    0.4200 c3        1 MOL      0.239279
    111 C36        -0.1780    2.7370    0.8700 c         1 MOL      0.622843
    112 O17        -0.8160    3.7690    1.1270 o         1 MOL     -0.482602
    113 C37        -1.0680    0.4170    1.6080 c3        1 MOL     -0.232304
    114 C38        -1.3430   -1.0300    1.1750 c         1 MOL      0.637128
    115 N11        -0.3780   -1.6800    0.5320 n         1 MOL     -0.677293
    116 O18        -2.4160   -1.6220    1.3740 o         1 MOL     -0.561534
    117 H50        -3.0150    1.4480    0.1430 hn        1 MOL      0.317158
    118 H51        -0.1640    0.9310   -0.3040 h1        1 MOL     -0.001817
    119 H52        -1.9170    0.8010    2.1740 hc        1 MOL      0.095074
    120 H53        -0.1950    0.2930    2.2400 hc        1 MOL      0.095074
    121 H54         0.5180   -1.2100    0.5510 hn        1 MOL      0.309767
    122 H55        -0.4690   -2.6480    0.2790 hn        1 MOL      0.309767
    123 N12         1.1650    2.6140    0.9790 n         1 MOL     -0.598193
    124 C39         2.1380    3.6990    1.3170 c3        1 MOL      0.376039
    125 C40         3.3240    3.7440    0.3420 c         1 MOL      0.452901
    126 O19         3.7660    2.6650   -0.0500 o         1 MOL     -0.540764
    127 C41         2.4970    3.4760    2.7730 c3        1 MOL     -0.288172
    128 C42         1.2900    3.7350    3.6650 ca        1 MOL     -0.009504
    129 C43         0.6770    2.7180    4.3750 ca        1 MOL     -0.051960
    130 C44         0.8470    5.0570    3.8600 ca        1 MOL     -0.051960
    131 C45        -0.3210    2.8910    5.3050 ca        1 MOL     -0.367630
    132 C46        -0.2110    5.3500    4.8230 ca        1 MOL     -0.367630
    133 C47        -0.7690    4.2160    5.5420 ca        1 MOL      0.379307
    134 O20        -1.8200    4.3980    6.3710 oh        1 MOL     -0.497789
    135 H56         1.5530    1.6920    0.8250 hn        1 MOL      0.281583
    136 H57         1.6310    4.6470    1.0990 h1        1 MOL      0.022162
    137 H58         3.1940    4.2660    3.0750 hc        1 MOL      0.099475
    138 H59         2.9930    2.5150    2.9040 hc        1 MOL      0.099475
    139 H60         1.2310    1.7880    4.4200 ha        1 MOL      0.101339
    140 H61         1.4340    5.8880    3.4820 ha        1 MOL      0.101339
    141 H62        -0.7510    2.0850    5.8780 ha        1 MOL      0.184220
    142 H63        -0.7080    6.3010    4.9790 ha        1 MOL      0.184220
    143 H64        -1.9010    3.6680    6.9920 ho        1 MOL      0.368746
    144 N13         3.8550    4.9230   -0.0830 n         1 MOL     -0.607932
    145 C48         5.0590    5.0240   -0.9300 c3        1 MOL      0.559887
    146 C49         6.2530    5.3190    0.0230 c         1 MOL      0.478427
    147 O21         6.1860    6.2920    0.8110 o         1 MOL     -0.570196
    148 C50         4.8610    6.1800   -1.9330 c3        1 MOL     -0.110020
    149 C51         5.8060    6.0950   -3.1220 c3        1 MOL     -0.023212
    150 C52         5.7680    7.3650   -3.9080 c         1 MOL      0.684328
    151 O22         4.7560    8.1310   -3.9190 o         1 MOL     -0.686280
    152 O23         6.8120    7.7290   -4.4320 o         1 MOL     -0.686280
    153 H65         3.4470    5.7930    0.2000 hn        1 MOL      0.273838
    154 H66         5.2280    4.1690   -1.5810 h1        1 MOL     -0.065565
    155 H67         4.9770    7.1510   -1.4540 hc        1 MOL      0.015897
    156 H68         3.8500    6.0870   -2.3270 hc        1 MOL      0.015897
    157 H69         5.5120    5.2640   -3.7750 hc        1 MOL     -0.013676
    158 H70         6.8080    5.8840   -2.7730 hc        1 MOL     -0.013676
    159 N14         7.3680    4.5390   -0.0280 n         1 MOL     -0.676251
    160 C53         7.4290    3.1810   -0.7320 c3        1 MOL      0.249833
    161 C54         8.1320    3.2060   -2.0950 c         1 MOL      0.423923
    162 O24         9.0630    3.9670   -2.2570 o         1 MOL     -0.483763
    163 C55         7.9960    2.0980    0.1440 c3        1 MOL      0.367647
    164 C56         7.4750    2.0110    1.5690 c3        1 MOL     -0.249869
    165 C57         7.7840    0.6460    2.2170 c         1 MOL      0.694154
    166 O25         8.9090    0.3880    2.6820 o         1 MOL     -0.644765
    167 O26         6.9270   -0.2440    2.0760 o         1 MOL     -0.644765
    168 H71         8.0100    4.6830    0.7280 hn        1 MOL      0.391359
    169 H72         6.3910    2.9070   -0.9020 h1        1 MOL     -0.010558
    170 H73         9.0520    2.3650    0.2590 hc        1 MOL     -0.132615
    171 H74         7.8690    1.2100   -0.4790 hc        1 MOL     -0.132615
    172 H75         6.4030    2.1710    1.5780 hc        1 MOL      0.010687
    173 H76         7.9700    2.7800    2.1780 hc        1 MOL      0.010687
    174 N15         7.7110    2.3230   -3.0370 n         1 MOL     -0.411869
    175 C58         8.1720    2.3330   -4.4580 c3        1 MOL      0.029446
    176 H77         9.0910    1.7530   -4.5450 h1        1 MOL      0.038824
    177 H78         7.4040    1.8920   -5.0930 h1        1 MOL      0.038824
    178 H79         8.3600    3.3590   -4.7730 h1        1 MOL      0.038824
    179 H80         6.8790    1.7670   -2.8600 hn        1 MOL      0.287437
    180 Ca1         7.0470   -4.6530    1.2490 Ca        1 MOL      1.714045
    181 O27         6.3560   -7.1270    0.5810 oh        1 MOL     -0.837089
    182 H81         5.6340   -7.3770    1.1470 ho        1 MOL      0.375142
    183 H82         6.4580   -7.8690   -0.0170 ho        1 MOL      0.375142
    184 O28         5.9440   -2.1760    0.6280 oh        1 MOL     -0.837089
    185 O29         6.5230   -5.8280    3.5550 oh        1 MOL     -0.837089
    186 H83         6.3470   -1.5560    1.2340 ho        1 MOL      0.375142
    187 H84         6.9790   -5.6040    4.3630 ho        1 MOL      0.375142
    188 H85         5.4080   -1.6370    0.0400 ho        1 MOL      0.375142
    189 H86         5.9170   -6.5270    3.8130 ho        1 MOL      0.375142
    190 O30         9.1890   -3.2990    0.6590 oh        1 MOL     -0.837089
    191 H87        10.0440   -3.6650    0.3940 ho        1 MOL      0.375142
    192 H88         9.3590   -2.3680    0.7620 ho        1 MOL      0.375142
    193 O31         9.3130   -5.8480    1.7940 oh        1 MOL     -0.837089
    194 H89         9.7710   -6.4500    1.2050 ho        1 MOL      0.375142
    195 H90         9.8730   -5.8090    2.5730 ho        1 MOL      0.375142
    196 O32         7.2080   -2.9550    3.4550 oh        1 MOL     -0.837089
    197 H91         7.5380   -2.0690    3.2990 ho        1 MOL      0.375142
    198 H92         7.8560   -3.3610    4.0290 ho        1 MOL      0.375142
@<TRIPOS>BOND
     1    1    2 1   
     2    1    4 1   
     3    1    5 1   
     4    1    6 1   
     5    2    3 2   
     6    2    7 1   
     7    7    8 1   
     8    7   15 1   
     9    8    9 1   
    10    8   11 1   
    11    8   16 1   
    12    9   10 2   
    13    9   19 1   
    14   11   12 1   
    15   11   17 1   
    16   11   18 1   
    17   12   13 1   
    18   12   14 1   
    19   19   20 1   
    20   19   27 1   
    21   20   21 1   
    22   20   23 1   
    23   20   28 1   
    24   21   22 2   
    25   21   38 1   
    26   23   24 1   
    27   23   25 1   
    28   23   29 1   
    29   24   26 1   
    30   24   30 1   
    31   24   31 1   
    32   25   32 1   
    33   25   33 1   
    34   25   34 1   
    35   26   35 1   
    36   26   36 1   
    37   26   37 1   
    38   38   39 1   
    39   38   46 1   
    40   39   40 1   
    41   39   42 1   
    42   39   47 1   
    43   40   41 2   
    44   40   50 1   
    45   42   43 1   
    46   42   48 1   
    47   42   49 1   
    48   43   44 1   
    49   43   45 1   
    50   50   51 1   
    51   50   54 1   
    52   51   52 1   
    53   51   55 1   
    54   51   56 1   
    55   52   53 2   
    56   52   57 1   
    57   57   58 1   
    58   57   65 1   
    59   58   59 1   
    60   58   61 1   
    61   58   66 1   
    62   59   60 2   
    63   59   69 1   
    64   61   62 1   
    65   61   67 1   
    66   61   68 1   
    67   62   63 1   
    68   62   64 1   
    69   69   70 1   
    70   69   73 1   
    71   70   71 1   
    72   70   74 1   
    73   70   75 1   
    74   71   72 2   
    75   71   76 1   
    76   76   77 1   
    77   76   85 1   
    78   77   78 1   
    79   77   80 1   
    80   77   86 1   
    81   78   79 2   
    82   78   93 1   
    83   80   81 1   
    84   80   87 1   
    85   80   88 1   
    86   81   82 1   
    87   81   89 1   
    88   81   90 1   
    89   82   83 1   
    90   82   84 2   
    91   83   91 1   
    92   83   92 1   
    93   93   94 1   
    94   93  100 1   
    95   94   95 1   
    96   94   97 1   
    97   94  101 1   
    98   95   96 2   
    99   95  109 1   
   100   97   98 1   
   101   97   99 1   
   102   97  102 1   
   103   98  103 1   
   104   98  104 1   
   105   98  105 1   
   106   99  106 1   
   107   99  107 1   
   108   99  108 1   
   109  109  110 1   
   110  109  117 1   
   111  110  111 1   
   112  110  113 1   
   113  110  118 1   
   114  111  112 2   
   115  111  123 1   
   116  113  114 1   
   117  113  119 1   
   118  113  120 1   
   119  114  115 1   
   120  114  116 2   
   121  115  121 1   
   122  115  122 1   
   123  123  124 1   
   124  123  135 1   
   125  124  125 1   
   126  124  127 1   
   127  124  136 1   
   128  125  126 2   
   129  125  144 1   
   130  127  128 1   
   131  127  137 1   
   132  127  138 1   
   133  128  129 ar  
   134  128  130 ar  
   135  129  131 ar  
   136  129  139 1   
   137  130  132 ar  
   138  130  140 1   
   139  131  133 ar  
   140  131  141 1   
   141  132  133 ar  
   142  132  142 1   
   143  133  134 1   
   144  134  143 1   
   145  144  145 1   
   146  144  153 1   
   147  145  146 1   
   148  145  148 1   
   149  145  154 1   
   150  146  147 2   
   151  146  159 1   
   152  148  149 1   
   153  148  155 1   
   154  148  156 1   
   155  149  150 1   
   156  149  157 1   
   157  149  158 1   
   158  150  151 1   
   159  150  152 1   
   160  159  160 1   
   161  159  168 1   
   162  160  161 1   
   163  160  163 1   
   164  160  169 1   
   165  161  162 2   
   166  161  174 1   
   167  163  164 1   
   168  163  170 1   
   169  163  171 1   
   170  164  165 1   
   171  164  172 1   
   172  164  173 1   
   173  165  166 1   
   174  165  167 1   
   175  174  175 1   
   176  174  179 1   
   177  175  176 1   
   178  175  177 1   
   179  175  178 1   
   180  181  182 1   
   181  181  183 1   
   182  184  186 1   
   183  184  188 1   
   184  185  187 1   
   185  185  189 1   
   186  190  191 1   
   187  190  192 1   
   188  193  194 1   
   189  193  195 1   
   190  196  197 1   
   191  196  198 1   
@<TRIPOS>SUBSTRUCTURE
     1 MOL         1 TEMP              0 ****  ****    0 ROOT
