@<TRIPOS>MOLECULE
MOL
  189   185     1     0     0
SMALL
resp


@<TRIPOS>ATOM
      1 C1          1.3590    7.6530   -2.6960 c3        1 MOL     -0.331315
      2 C2          1.6950    6.1480   -2.3990 c         1 MOL      0.686392
      3 O1          1.4890    5.2650   -3.2050 o         1 MOL     -0.617103
      4 H1          0.3200    7.8520   -2.4330 hc        1 MOL      0.084938
      5 H2          2.0120    8.2940   -2.1040 hc        1 MOL      0.084938
      6 H3          1.5110    7.8580   -3.7560 hc        1 MOL      0.084938
      7 N1          2.1770    5.8260   -1.2160 n         1 MOL     -0.556523
      8 C3          2.4490    4.4820   -0.7310 c3        1 MOL      0.202608
      9 C4          1.2130    3.6930   -0.3400 c         1 MOL      0.321710
     10 O2          1.2170    2.4340   -0.3790 o         1 MOL     -0.520237
     11 C5          3.5120    4.5510    0.4070 c3        1 MOL     -0.425190
     12 C6          3.2870    5.7070    1.4650 c         1 MOL      0.749741
     13 O3          3.2010    6.9030    1.1190 o         1 MOL     -0.714760
     14 O4          3.1490    5.3540    2.6730 o         1 MOL     -0.714760
     15 H4          2.4440    6.5260   -0.5430 hn        1 MOL      0.304711
     16 H5          2.8710    3.9270   -1.5760 h1        1 MOL      0.111506
     17 H6          4.4140    4.7450   -0.1720 hc        1 MOL      0.102223
     18 H7          3.6060    3.5900    0.9240 hc        1 MOL      0.102223
     19 N2          0.0960    4.3250   -0.0090 n         1 MOL     -0.149998
     20 C7         -1.1770    3.6780    0.3620 c3        1 MOL      0.044352
     21 C8         -2.0500    3.3390   -0.8600 c         1 MOL      0.481475
     22 O5         -2.0290    4.1030   -1.8400 o         1 MOL     -0.544291
     23 C9         -1.8640    4.7570    1.2750 c3        1 MOL     -0.069235
     24 C10        -1.2300    4.9760    2.6790 c3        1 MOL     -0.038200
     25 C11        -1.9320    6.0920    3.4710 c3        1 MOL      0.059319
     26 C12        -1.6120    6.1860    4.9180 c3        1 MOL      0.022832
     27 N3         -2.3440    5.1560    5.6810 n4        1 MOL     -0.440894
     28 H8          0.0200    5.3210   -0.0920 hn        1 MOL      0.191341
     29 H9         -0.9310    2.7670    0.9050 h1        1 MOL      0.110929
     30 H10        -2.9280    4.5590    1.3890 hc        1 MOL      0.055189
     31 H11        -1.9480    5.7440    0.8050 hc        1 MOL      0.055189
     32 H12        -0.1510    5.1640    2.5890 hc        1 MOL      0.019401
     33 H13        -1.3610    4.0860    3.2930 hc        1 MOL      0.019401
     34 H14        -2.9970    6.0880    3.2420 hc        1 MOL      0.016031
     35 H15        -1.6260    7.0970    3.1910 hc        1 MOL      0.016031
     36 H16        -1.9970    7.1540    5.2180 hx        1 MOL      0.097027
     37 H17        -0.5380    6.2020    5.1050 hx        1 MOL      0.097027
     38 H18        -2.1160    5.1880    6.6700 hn        1 MOL      0.346277
     39 H19        -3.3250    5.3010    5.5340 hn        1 MOL      0.346277
     40 H20        -2.1180    4.2190    5.3900 hn        1 MOL      0.346277
     41 N4         -2.6810    2.1650   -0.9580 n         1 MOL     -0.468226
     42 C13        -2.9090    1.1190    0.0840 c3        1 MOL      0.015556
     43 C14        -3.4150    1.6890    1.4700 c         1 MOL      0.454083
     44 O6         -2.6120    1.7700    2.4160 o         1 MOL     -0.583409
     45 C15        -1.7020    0.1360    0.1660 c3        1 MOL     -0.297502
     46 C16        -1.3690   -0.4360   -1.1750 c         1 MOL      1.042897
     47 O7         -2.1020   -0.2430   -2.1850 o         1 MOL     -0.853714
     48 O8         -0.2930   -1.0100   -1.2750 o         1 MOL     -0.853714
     49 H21        -3.0270    1.9620   -1.8960 hn        1 MOL      0.323130
     50 H22        -3.6800    0.4870   -0.3560 h1        1 MOL      0.093051
     51 H23        -2.0280   -0.6530    0.8440 hc        1 MOL      0.090392
     52 H24        -0.8290    0.5630    0.6550 hc        1 MOL      0.090392
     53 N5         -4.6340    2.2130    1.6260 n         1 MOL     -0.326740
     54 C17        -5.6590    2.2610    0.6240 c3        1 MOL     -0.037461
     55 C18        -7.0980    2.5480    1.2930 c         1 MOL      0.605916
     56 O9         -7.2240    3.0600    2.3910 o         1 MOL     -0.575589
     57 H25        -4.8990    2.4220    2.5720 hn        1 MOL      0.242036
     58 H26        -5.6700    1.3100    0.0860 h1        1 MOL      0.069369
     59 H27        -5.5220    3.0700   -0.0870 h1        1 MOL      0.069369
     60 N6         -8.1930    2.1780    0.6280 n         1 MOL     -0.474278
     61 C19        -8.2690    1.4880   -0.7120 c3        1 MOL      0.055772
     62 C20        -8.2280   -0.0710   -0.6810 c         1 MOL      0.494402
     63 O10        -8.7720   -0.6490    0.2620 o         1 MOL     -0.502103
     64 C21        -9.5800    1.9260   -1.4180 c3        1 MOL     -0.229801
     65 C22        -9.9310    3.4240   -1.3270 c         1 MOL      0.698665
     66 O11       -11.0300    3.7630   -0.7860 o         1 MOL     -0.704656
     67 O12        -9.0670    4.2520   -1.6610 o         1 MOL     -0.704656
     68 H28        -9.0730    2.3750    1.0850 hn        1 MOL      0.352242
     69 H29        -7.4130    1.8520   -1.2770 h1        1 MOL      0.017561
     70 H30       -10.3970    1.4030   -0.9320 hc        1 MOL      0.043451
     71 H31        -9.5830    1.5690   -2.4560 hc        1 MOL      0.043451
     72 N7         -7.5450   -0.7150   -1.6150 n         1 MOL     -0.414167
     73 C23        -7.4100   -2.1450   -1.6090 c3        1 MOL     -0.084577
     74 C24        -6.4420   -2.6910   -0.5490 c         1 MOL      0.495576
     75 O13        -6.4950   -2.3740    0.6740 o         1 MOL     -0.467777
     76 H32        -7.0540   -0.1680   -2.3130 hn        1 MOL      0.292145
     77 H33        -7.1040   -2.4760   -2.5990 h1        1 MOL      0.100537
     78 H34        -8.3940   -2.6090   -1.5290 h1        1 MOL      0.100537
     79 N8         -5.9400   -3.9000   -0.8130 n         1 MOL     -0.415440
     80 C25        -5.0200   -4.6150    0.1000 c3        1 MOL     -0.026273
     81 C26        -3.6250   -4.1080    0.3300 c         1 MOL      0.708022
     82 O14        -3.0370   -3.6310   -0.6510 o         1 MOL     -0.623489
     83 C27        -5.0250   -6.1180   -0.1090 c3        1 MOL      0.408254
     84 C28        -4.5860   -6.4720   -1.4910 c3        1 MOL     -0.264924
     85 O15        -6.3590   -6.6340    0.0170 oh        1 MOL     -0.647008
     86 H35        -6.2990   -4.3350   -1.6570 hn        1 MOL      0.276974
     87 H36        -5.4890   -4.6510    1.0820 h1        1 MOL      0.094503
     88 H37        -4.4140   -6.6730    0.6100 h1        1 MOL     -0.009222
     89 H38        -6.3710   -7.5370   -0.2950 ho        1 MOL      0.400657
     90 H39        -5.4520   -6.4720   -2.1610 hc        1 MOL      0.053273
     91 H40        -3.8980   -5.6960   -1.8330 hc        1 MOL      0.053273
     92 H41        -4.0390   -7.4120   -1.5040 hc        1 MOL      0.053273
     93 N9         -3.0670   -4.0680    1.5450 n         1 MOL     -0.650638
     94 C29        -1.6630   -3.6430    1.8010 c3        1 MOL      0.245210
     95 C30        -0.7090   -4.7920    1.4390 c         1 MOL      0.417131
     96 O16        -0.9610   -5.9670    1.6550 o         1 MOL     -0.523717
     97 C31        -1.5270   -3.3010    3.3360 c3        1 MOL      0.055895
     98 C32        -2.3400   -1.9800    3.5570 c3        1 MOL      0.163844
     99 C33        -0.0430   -2.9650    3.6790 c3        1 MOL     -0.264748
    100 C34        -2.5920   -1.8190    5.0560 c3        1 MOL     -0.411794
    101 H42        -3.6060   -4.4000    2.3400 hn        1 MOL      0.285754
    102 H43        -1.4440   -2.8030    1.1440 h1        1 MOL     -0.062889
    103 H44        -1.8650   -4.1390    3.9500 hc        1 MOL      0.041906
    104 H45        -3.2640   -1.9500    2.9770 hc        1 MOL      0.020855
    105 H46        -1.7860   -1.1090    3.2140 hc        1 MOL      0.020855
    106 H47         0.5610   -3.7900    3.3020 hc        1 MOL      0.054788
    107 H48         0.2370   -2.1550    2.9920 hc        1 MOL      0.054788
    108 H49         0.1680   -2.6630    4.6970 hc        1 MOL      0.054788
    109 H50        -3.2160   -2.6860    5.3190 hc        1 MOL      0.101155
    110 H51        -1.7030   -1.7890    5.6920 hc        1 MOL      0.101155
    111 H52        -3.0560   -0.8620    5.2380 hc        1 MOL      0.101155
    112 N10         0.4420   -4.4510    0.7960 n         1 MOL     -0.229095
    113 C35         1.4180   -5.3740    0.1280 c3        1 MOL     -0.127319
    114 C36         2.8880   -5.0030    0.4120 c         1 MOL      0.393095
    115 O17         3.7360   -5.8450    0.0430 o         1 MOL     -0.518013
    116 C37         1.3010   -5.4220   -1.3680 c3        1 MOL      0.426821
    117 C38         1.7820   -4.3110   -2.2030 c3        1 MOL     -0.218242
    118 O18        -0.0650   -5.7370   -1.7840 oh        1 MOL     -0.710707
    119 H53         0.4920   -3.4610    0.6150 hn        1 MOL      0.278214
    120 H54         1.2790   -6.4080    0.4210 h1        1 MOL      0.106872
    121 H55         1.8890   -6.2890   -1.6970 h1        1 MOL     -0.000046
    122 H56        -0.3770   -6.4580   -1.2400 ho        1 MOL      0.420319
    123 H57         2.8200   -4.4910   -2.5030 hc        1 MOL      0.063405
    124 H58         1.3610   -4.3930   -3.2120 hc        1 MOL      0.063405
    125 H59         1.5870   -3.3000   -1.8600 hc        1 MOL      0.063405
    126 N11         3.1410   -3.8640    1.0000 n         1 MOL     -0.237539
    127 C39         4.4250   -3.3080    1.4250 c3        1 MOL     -0.029233
    128 C40         5.3970   -2.9980    0.3200 c         1 MOL      0.451395
    129 O19         5.3620   -3.5320   -0.7700 o         1 MOL     -0.449358
    130 C41         5.0400   -4.1160    2.5180 c3        1 MOL      0.463683
    131 C42         4.0790   -4.5780    3.6640 c3        1 MOL     -0.304000
    132 O20         6.0900   -3.4460    3.1640 oh        1 MOL     -0.657455
    133 H60         2.3130   -3.3650    1.2730 hn        1 MOL      0.201316
    134 H61         4.2290   -2.3470    1.9090 h1        1 MOL      0.075080
    135 H62         5.4370   -5.0520    2.1110 h1        1 MOL     -0.005540
    136 H63         6.6850   -4.1760    3.3610 ho        1 MOL      0.390699
    137 H64         4.5940   -5.2900    4.3000 hc        1 MOL      0.067457
    138 H65         3.6810   -3.7320    4.2210 hc        1 MOL      0.067457
    139 H66         3.2420   -5.0800    3.1620 hc        1 MOL      0.067457
    140 N12         6.3630   -2.1580    0.6690 n         1 MOL     -0.402745
    141 C43         7.4470   -1.8340   -0.1820 c3        1 MOL     -0.030503
    142 C44         7.1420   -0.7610   -1.2230 c         1 MOL      0.543208
    143 O21         7.8880   -0.5230   -2.1530 o         1 MOL     -0.589127
    144 C45         8.6810   -1.5240    0.6410 c3        1 MOL     -0.030178
    145 C46         8.3900   -0.3580    1.5990 c3        1 MOL      0.090839
    146 C47         9.5940   -0.2250    2.5750 c3        1 MOL     -0.102143
    147 C48         9.3740    0.8840    3.6020 c3        1 MOL      0.048630
    148 N13         9.9500    2.2410    3.1400 n4        1 MOL     -0.403768
    149 H67         6.2720   -1.7730    1.6100 hn        1 MOL      0.281877
    150 H68         7.6670   -2.6900   -0.8170 h1        1 MOL      0.125960
    151 H69         9.5870   -1.3090    0.0690 hc        1 MOL      0.028160
    152 H70         8.8960   -2.4380    1.1830 hc        1 MOL      0.028160
    153 H71         7.4890   -0.5540    2.1680 hc        1 MOL     -0.009559
    154 H72         8.2320    0.5300    0.9860 hc        1 MOL     -0.009559
    155 H73        10.5280    0.0140    2.0630 hc        1 MOL      0.057447
    156 H74         9.6890   -1.1590    3.1290 hc        1 MOL      0.057447
    157 H75         9.9160    0.6590    4.5180 hx        1 MOL      0.088056
    158 H76         8.2960    1.0430    3.7190 hx        1 MOL      0.088056
    159 H77         9.7420    2.9830    3.7970 hn        1 MOL      0.344968
    160 H78        10.8830    2.0680    2.7860 hn        1 MOL      0.344968
    161 H79         9.4270    2.4620    2.2990 hn        1 MOL      0.344968
    162 N14         6.0900    0.0200   -1.0360 n         1 MOL     -0.212883
    163 C49         5.5770    0.9620   -1.9810 c3        1 MOL     -0.389058
    164 C50         6.3550    2.2690   -2.1280 c         1 MOL      0.621911
    165 O22         6.5130    3.0450   -1.1540 o         1 MOL     -0.577863
    166 C51         4.1110    1.2010   -1.7760 c3        1 MOL      0.076051
    167 C52         3.3150   -0.1250   -1.9650 c3        1 MOL      0.123691
    168 C53         3.1290   -0.5850   -3.3390 c         1 MOL      0.772505
    169 O23         2.1900   -1.3160   -3.5530 o         1 MOL     -0.784297
    170 O24         3.8750   -0.2140   -4.2850 o         1 MOL     -0.784297
    171 H80         5.5220   -0.1440   -0.2150 hn        1 MOL      0.169323
    172 H81         5.7310    0.4470   -2.9220 h1        1 MOL      0.233856
    173 H82         3.6720    1.9910   -2.3880 hc        1 MOL      0.021677
    174 H83         3.9670    1.5390   -0.7500 hc        1 MOL      0.021677
    175 H84         2.3060    0.0110   -1.5720 hc        1 MOL     -0.070582
    176 H85         3.7530   -0.9420   -1.3890 hc        1 MOL     -0.070582
    177 N15         6.8870    2.5220   -3.3490 n         1 MOL     -0.363243
    178 C54         7.5520    3.7770   -3.7930 c3        1 MOL     -0.094911
    179 H86         8.4160    3.5310   -4.4100 h1        1 MOL      0.074219
    180 H87         6.8500    4.3750   -4.3750 h1        1 MOL      0.074219
    181 H88         7.8780    4.3440   -2.9220 h1        1 MOL      0.074219
    182 H89         6.8570    1.8010   -4.0440 hn        1 MOL      0.290817
    183 Ca1        -0.3370   -1.1760   -3.8970 Ca        1 MOL      1.800249
    184 O25         0.2460    1.4080   -3.2190 oh        1 MOL     -1.055912
    185 H90         0.0990    2.0880   -3.8730 ho        1 MOL      0.494778
    186 H91         0.4980    1.8810   -2.4340 ho        1 MOL      0.494778
    187 O26        -1.3680   -3.4150   -2.7210 oh        1 MOL     -1.055912
    188 H92        -1.9530   -3.4720   -1.9720 ho        1 MOL      0.494778
    189 H93        -0.8390   -4.2170   -2.6800 ho        1 MOL      0.494778
@<TRIPOS>BOND
     1    1    2 1   
     2    1    4 1   
     3    1    5 1   
     4    1    6 1   
     5    2    3 2   
     6    2    7 1   
     7    7    8 1   
     8    7   15 1   
     9    8    9 1   
    10    8   11 1   
    11    8   16 1   
    12    9   10 2   
    13    9   19 1   
    14   11   12 1   
    15   11   17 1   
    16   11   18 1   
    17   12   13 1   
    18   12   14 1   
    19   19   20 1   
    20   19   28 1   
    21   20   21 1   
    22   20   23 1   
    23   20   29 1   
    24   21   22 2   
    25   21   41 1   
    26   23   24 1   
    27   23   30 1   
    28   23   31 1   
    29   24   25 1   
    30   24   32 1   
    31   24   33 1   
    32   25   26 1   
    33   25   34 1   
    34   25   35 1   
    35   26   27 1   
    36   26   36 1   
    37   26   37 1   
    38   27   38 1   
    39   27   39 1   
    40   27   40 1   
    41   41   42 1   
    42   41   49 1   
    43   42   43 1   
    44   42   45 1   
    45   42   50 1   
    46   43   44 2   
    47   43   53 1   
    48   45   46 1   
    49   45   51 1   
    50   45   52 1   
    51   46   47 1   
    52   46   48 1   
    53   53   54 1   
    54   53   57 1   
    55   54   55 1   
    56   54   58 1   
    57   54   59 1   
    58   55   56 2   
    59   55   60 1   
    60   60   61 1   
    61   60   68 1   
    62   61   62 1   
    63   61   64 1   
    64   61   69 1   
    65   62   63 2   
    66   62   72 1   
    67   64   65 1   
    68   64   70 1   
    69   64   71 1   
    70   65   66 1   
    71   65   67 1   
    72   72   73 1   
    73   72   76 1   
    74   73   74 1   
    75   73   77 1   
    76   73   78 1   
    77   74   75 2   
    78   74   79 1   
    79   79   80 1   
    80   79   86 1   
    81   80   81 1   
    82   80   83 1   
    83   80   87 1   
    84   81   82 2   
    85   81   93 1   
    86   83   84 1   
    87   83   85 1   
    88   83   88 1   
    89   84   90 1   
    90   84   91 1   
    91   84   92 1   
    92   85   89 1   
    93   93   94 1   
    94   93  101 1   
    95   94   95 1   
    96   94   97 1   
    97   94  102 1   
    98   95   96 2   
    99   95  112 1   
   100   97   98 1   
   101   97   99 1   
   102   97  103 1   
   103   98  100 1   
   104   98  104 1   
   105   98  105 1   
   106   99  106 1   
   107   99  107 1   
   108   99  108 1   
   109  100  109 1   
   110  100  110 1   
   111  100  111 1   
   112  112  113 1   
   113  112  119 1   
   114  113  114 1   
   115  113  116 1   
   116  113  120 1   
   117  114  115 2   
   118  114  126 1   
   119  116  117 1   
   120  116  118 1   
   121  116  121 1   
   122  117  123 1   
   123  117  124 1   
   124  117  125 1   
   125  118  122 1   
   126  126  127 1   
   127  126  133 1   
   128  127  128 1   
   129  127  130 1   
   130  127  134 1   
   131  128  129 2   
   132  128  140 1   
   133  130  131 1   
   134  130  132 1   
   135  130  135 1   
   136  131  137 1   
   137  131  138 1   
   138  131  139 1   
   139  132  136 1   
   140  140  141 1   
   141  140  149 1   
   142  141  142 1   
   143  141  144 1   
   144  141  150 1   
   145  142  143 2   
   146  142  162 1   
   147  144  145 1   
   148  144  151 1   
   149  144  152 1   
   150  145  146 1   
   151  145  153 1   
   152  145  154 1   
   153  146  147 1   
   154  146  155 1   
   155  146  156 1   
   156  147  148 1   
   157  147  157 1   
   158  147  158 1   
   159  148  159 1   
   160  148  160 1   
   161  148  161 1   
   162  162  163 1   
   163  162  171 1   
   164  163  164 1   
   165  163  166 1   
   166  163  172 1   
   167  164  165 2   
   168  164  177 1   
   169  166  167 1   
   170  166  173 1   
   171  166  174 1   
   172  167  168 1   
   173  167  175 1   
   174  167  176 1   
   175  168  169 1   
   176  168  170 1   
   177  177  178 1   
   178  177  182 1   
   179  178  179 1   
   180  178  180 1   
   181  178  181 1   
   182  184  185 1   
   183  184  186 1   
   184  187  188 1   
   185  187  189 1   
@<TRIPOS>SUBSTRUCTURE
     1 MOL         1 TEMP              0 ****  ****    0 ROOT
