@<TRIPOS>MOLECULE
MOL
  201   193     1     0     0
SMALL
resp


@<TRIPOS>ATOM
      1 C1         -3.4780   -3.6440    2.8580 c3        1 MOL     -0.342092
      2 C2         -2.5860   -3.9200    1.6920 c         1 MOL      0.678365
      3 O1         -2.1390   -3.0360    0.9550 o         1 MOL     -0.615474
      4 H1         -4.0700   -2.7500    2.6590 hc        1 MOL      0.081380
      5 H2         -4.1440   -4.4920    3.0160 hc        1 MOL      0.081380
      6 H3         -2.8730   -3.4860    3.7500 hc        1 MOL      0.081380
      7 N1         -2.5500   -5.1510    1.2460 n         1 MOL     -0.336000
      8 C3         -1.7010   -5.8070    0.1790 c3        1 MOL     -0.100142
      9 C4         -0.2090   -5.4750    0.1910 c         1 MOL      0.885310
     10 O2          0.4240   -5.0280   -0.7510 o         1 MOL     -0.612178
     11 C5         -2.2910   -5.5370   -1.2110 c3        1 MOL     -0.287151
     12 C6         -3.7050   -6.0300   -1.2930 c         1 MOL      0.725736
     13 O3         -4.6810   -5.2650   -1.5240 o         1 MOL     -0.686848
     14 O4         -3.8270   -7.2970   -1.2330 o         1 MOL     -0.686848
     15 H4         -3.0920   -5.7750    1.8270 hn        1 MOL      0.243477
     16 H5         -1.8010   -6.8900    0.2710 h1        1 MOL      0.051326
     17 H6         -1.7390   -6.1800   -1.8900 hc        1 MOL      0.106192
     18 H7         -2.1280   -4.5260   -1.6010 hc        1 MOL      0.106192
     19 N2          0.4270   -5.6370    1.3580 n         1 MOL     -0.630239
     20 C7          1.8520   -5.2290    1.5680 c3        1 MOL     -0.021280
     21 C8          2.7970   -6.3470    1.0840 c         1 MOL      0.464655
     22 O5          2.2990   -7.4580    1.0560 o         1 MOL     -0.556931
     23 C9          2.1310   -4.7560    3.0040 c3        1 MOL      0.397754
     24 C10         2.3740   -5.7990    4.0300 c3        1 MOL     -0.060465
     25 C11         0.9470   -3.8340    3.4240 c3        1 MOL     -0.137037
     26 C12         2.8180   -5.4200    5.4960 c3        1 MOL     -0.192853
     27 H8         -0.1240   -5.9290    2.1510 hn        1 MOL      0.249745
     28 H9          2.0240   -4.3410    0.9550 h1        1 MOL      0.109248
     29 H10         2.9840   -4.0970    2.9310 hc        1 MOL     -0.073464
     30 H11         3.2810   -6.2720    3.6560 hc        1 MOL      0.017186
     31 H12         1.5490   -6.5030    4.1400 hc        1 MOL      0.017186
     32 H13         0.0440   -4.4010    3.6170 hc        1 MOL      0.001308
     33 H14         1.2620   -3.2500    4.2880 hc        1 MOL      0.001308
     34 H15         0.8640   -3.0580    2.6630 hc        1 MOL      0.001308
     35 H16         3.7660   -4.8790    5.4990 hc        1 MOL      0.042795
     36 H17         2.0350   -4.7540    5.8390 hc        1 MOL      0.042795
     37 H18         2.8620   -6.3140    6.1210 hc        1 MOL      0.042795
     38 N3          4.0760   -6.0950    0.7160 n         1 MOL     -0.273385
     39 C13         4.7920   -4.8060    0.6020 c3        1 MOL     -0.106073
     40 C14         4.2280   -3.7540   -0.3800 c         1 MOL      0.188076
     41 O6          4.4510   -2.5460   -0.2500 o         1 MOL     -0.452090
     42 C15         6.3080   -5.0500    0.3930 c3        1 MOL     -0.329786
     43 C16         6.5860   -5.4680   -1.0290 c         1 MOL      0.734733
     44 O7          6.4300   -6.6920   -1.2560 o         1 MOL     -0.691984
     45 O8          6.8940   -4.6180   -1.8920 o         1 MOL     -0.691984
     46 H19         4.6170   -6.9070    0.4500 hn        1 MOL      0.235605
     47 H20         4.7930   -4.2390    1.5350 h1        1 MOL      0.111414
     48 H21         6.7300   -5.7270    1.1360 hc        1 MOL      0.090370
     49 H22         6.7930   -4.0870    0.5050 hc        1 MOL      0.090370
     50 N4          3.4530   -4.2040   -1.4340 n         1 MOL     -0.032035
     51 C17         3.0370   -3.4160   -2.6250 c3        1 MOL     -0.272500
     52 C18         4.2170   -2.7950   -3.3550 c         1 MOL      0.537465
     53 O9          4.6550   -3.3560   -4.3640 o         1 MOL     -0.550419
     54 H23         3.2310   -5.1920   -1.4460 hn        1 MOL      0.253460
     55 H24         2.2530   -2.6760   -2.4780 h1        1 MOL      0.115298
     56 H25         2.6800   -4.1940   -3.3070 h1        1 MOL      0.115298
     57 N5          4.7340   -1.6630   -2.8540 n         1 MOL     -0.189581
     58 C19         5.8440   -0.8800   -3.3440 c3        1 MOL     -0.033226
     59 C20         6.9150   -0.6340   -2.2490 c         1 MOL      0.529448
     60 O10         8.0090   -0.2620   -2.6090 o         1 MOL     -0.559259
     61 C21         5.3260    0.4590   -3.9560 c3        1 MOL     -0.242457
     62 C22         4.1220    0.9910   -3.2430 c         1 MOL      0.758221
     63 O11         4.3120    1.5110   -2.0980 o         1 MOL     -0.692235
     64 O12         2.9960    0.9060   -3.7910 o         1 MOL     -0.692235
     65 H26         4.3320   -1.3350   -1.9880 hn        1 MOL      0.192144
     66 H27         6.3640   -1.4290   -4.1320 h1        1 MOL      0.115621
     67 H28         5.0590    0.3570   -5.0120 hc        1 MOL      0.031851
     68 H29         6.0180    1.3020   -3.9000 hc        1 MOL      0.031851
     69 N6          6.5200   -0.7740   -0.9320 n         1 MOL     -0.161966
     70 C23         7.4500   -0.3520    0.1390 c3        1 MOL     -0.435972
     71 C24         7.5240    1.1770    0.2640 c         1 MOL      0.576163
     72 O13         8.3570    1.5100    1.0570 o         1 MOL     -0.588783
     73 H30         5.5910   -1.1240   -0.7670 hn        1 MOL      0.212324
     74 H31         8.4590   -0.7170   -0.0600 h1        1 MOL      0.176432
     75 H32         7.0270   -0.7360    1.0740 h1        1 MOL      0.176432
     76 N7          6.7420    1.9870   -0.4570 n         1 MOL      0.095102
     77 C25         6.6920    3.4260   -0.4400 c3        1 MOL      0.087163
     78 C26         6.3230    4.0870    0.9330 c         1 MOL      0.433055
     79 O14         6.6840    5.1930    1.2930 o         1 MOL     -0.501822
     80 C27         7.8420    4.1010   -1.1260 c3        1 MOL      0.040202
     81 C28         8.0070    3.5630   -2.6090 c3        1 MOL     -0.276916
     82 C29         9.0520    4.3670   -3.3020 c         1 MOL      0.751400
     83 N8          9.1290    4.3310   -4.6120 n         1 MOL     -0.858838
     84 O15         9.8490    5.1180   -2.7320 o         1 MOL     -0.600525
     85 H33         6.2420    1.5150   -1.2040 hn        1 MOL     -0.088516
     86 H34         5.8460    3.6310   -1.1000 h1        1 MOL      0.059925
     87 H35         8.6740    3.8410   -0.4810 hc        1 MOL     -0.000630
     88 H36         7.6800    5.1810   -1.0930 hc        1 MOL     -0.000630
     89 H37         7.0570    3.6550   -3.1440 hc        1 MOL      0.086547
     90 H38         8.3280    2.5120   -2.5900 hc        1 MOL      0.086547
     91 H39         8.6400    3.5790   -5.0700 hn        1 MOL      0.361602
     92 H40         9.7460    4.9420   -5.1270 hn        1 MOL      0.361602
     93 N9          5.6050    3.2350    1.6930 n         1 MOL     -0.362224
     94 C30         5.3070    3.5520    3.1370 c3        1 MOL     -0.020841
     95 C31         3.7810    3.6340    3.3270 c         1 MOL      0.463348
     96 O16         3.3820    4.3740    4.2500 o         1 MOL     -0.542365
     97 C32         5.7990    2.4110    4.0740 c3        1 MOL      0.251836
     98 C33         5.4700    0.9370    3.7060 c3        1 MOL     -0.212739
     99 C34         7.3410    2.5380    4.1810 c3        1 MOL     -0.212739
    100 H41         5.1460    2.4340    1.2930 hn        1 MOL      0.137659
    101 H42         5.8510    4.4330    3.4720 h1        1 MOL      0.095594
    102 H43         5.4920    2.5960    5.1070 hc        1 MOL     -0.031741
    103 H44         5.5790    0.2640    4.5610 hc        1 MOL      0.038613
    104 H45         4.3990    0.9270    3.5180 hc        1 MOL      0.038613
    105 H46         6.0990    0.6220    2.8750 hc        1 MOL      0.038613
    106 H47         7.5380    3.5070    4.6380 hc        1 MOL      0.038613
    107 H48         7.7960    1.8400    4.8830 hc        1 MOL      0.038613
    108 H49         7.8900    2.5310    3.2400 hc        1 MOL      0.038613
    109 N10         2.9770    2.8740    2.5380 n         1 MOL     -0.293302
    110 C35         1.5750    3.0160    2.4220 c3        1 MOL      0.103889
    111 C36         1.1700    3.6360    1.0580 c         1 MOL      0.652317
    112 O17         2.1030    3.8330    0.2530 o         1 MOL     -0.557603
    113 C37         0.9880    1.6380    2.5440 c3        1 MOL     -0.347197
    114 C38         1.2890    0.9290    3.8620 c         1 MOL      0.683878
    115 N11         1.8650   -0.2380    3.8640 n         1 MOL     -0.766618
    116 O18         0.9760    1.3980    4.9670 o         1 MOL     -0.568778
    117 H50         3.4310    2.3010    1.8420 hn        1 MOL      0.289572
    118 H51         1.3220    3.6650    3.2570 h1        1 MOL      0.046769
    119 H52         1.3850    1.0770    1.6880 hc        1 MOL      0.087316
    120 H53        -0.0800    1.6150    2.3290 hc        1 MOL      0.087316
    121 H54         2.0150   -0.6270    2.9480 hn        1 MOL      0.363162
    122 H55         2.0020   -0.7780    4.7110 hn        1 MOL      0.363162
    123 N12        -0.0820    3.8840    0.8190 n         1 MOL     -0.599308
    124 C39        -0.8040    4.6080   -0.3180 c3        1 MOL      0.117031
    125 C40        -2.2670    4.7440    0.0360 c         1 MOL      0.443657
    126 O19        -2.9060    3.9690    0.8520 o         1 MOL     -0.497673
    127 C41        -0.6740    3.7950   -1.5930 c3        1 MOL     -0.022871
    128 C42        -1.4500    2.5140   -1.4180 ca        1 MOL      0.048815
    129 C43        -0.8390    1.4430   -0.6730 ca        1 MOL     -0.091269
    130 C44        -2.6550    2.2460   -2.0730 ca        1 MOL     -0.091269
    131 C45        -1.5270    0.2200   -0.5260 ca        1 MOL     -0.276955
    132 C46        -3.3700    0.9920   -1.8450 ca        1 MOL     -0.276955
    133 C47        -2.7680   -0.0420   -1.0450 ca        1 MOL      0.298627
    134 O20        -3.3570   -1.2730   -0.9460 oh        1 MOL     -0.426048
    135 H56        -0.7440    3.4910    1.4820 hn        1 MOL      0.292816
    136 H57        -0.3990    5.5910   -0.5830 h1        1 MOL      0.082877
    137 H58         0.3740    3.5800   -1.7330 hc        1 MOL      0.044359
    138 H59        -1.0380    4.3860   -2.4280 hc        1 MOL      0.044359
    139 H60         0.1410    1.5520   -0.2420 ha        1 MOL      0.108630
    140 H61        -3.1660    2.8900   -2.7680 ha        1 MOL      0.108630
    141 H62        -1.0230   -0.5840   -0.0170 ha        1 MOL      0.179212
    142 H63        -4.2120    0.6920   -2.4490 ha        1 MOL      0.179212
    143 H64        -2.9260   -1.8060   -0.2790 ho        1 MOL      0.317706
    144 N13        -2.8910    5.6800   -0.6300 n         1 MOL     -0.418013
    145 C48        -4.2950    6.0690   -0.4510 c3        1 MOL      0.103675
    146 C49        -5.2060    5.7710   -1.7160 c         1 MOL      0.572783
    147 O21        -5.2710    6.5060   -2.7110 o         1 MOL     -0.559876
    148 C50        -4.4550    7.5310   -0.0480 c3        1 MOL     -0.020499
    149 C51        -5.7640    7.9650    0.5700 c3        1 MOL     -0.168040
    150 C52        -5.8890    9.4370    0.8550 c         1 MOL      0.740017
    151 O22        -6.5650   10.1790    0.0760 o         1 MOL     -0.703689
    152 O23        -5.3900    9.8540    1.9280 o         1 MOL     -0.703689
    153 H65        -2.3590    6.3020   -1.2150 hn        1 MOL      0.282250
    154 H66        -4.6160    5.5260    0.4340 h1        1 MOL      0.045473
    155 H67        -4.2750    8.2560   -0.8550 hc        1 MOL      0.008636
    156 H68        -3.6110    7.7420    0.6010 hc        1 MOL      0.008636
    157 H69        -5.9560    7.3940    1.4770 hc        1 MOL      0.014293
    158 H70        -6.5050    7.5060   -0.0830 hc        1 MOL      0.014293
    159 N14        -5.8180    4.5810   -1.7990 n         1 MOL     -0.478834
    160 C53        -5.9720    3.5200   -0.8430 c3        1 MOL      0.034017
    161 C54        -6.6110    3.8470    0.5380 c         1 MOL      0.534692
    162 O24        -7.7820    4.1690    0.4880 o         1 MOL     -0.577134
    163 C55        -6.6680    2.3900   -1.5810 c3        1 MOL      0.096065
    164 C56        -6.7020    1.0890   -0.7550 c3        1 MOL     -0.752619
    165 C57        -7.3410   -0.0510   -1.5450 c         1 MOL      0.918893
    166 O25        -6.8790   -0.3750   -2.6360 o         1 MOL     -0.730919
    167 O26        -8.3230   -0.6720   -1.1310 o         1 MOL     -0.730919
    168 H71        -6.4170    4.5070   -2.6060 hn        1 MOL      0.273930
    169 H72        -4.9830    3.1250   -0.6340 h1        1 MOL     -0.065901
    170 H73        -6.1120    2.2600   -2.5000 hc        1 MOL      0.066810
    171 H74        -7.6250    2.7840   -1.9470 hc        1 MOL      0.066810
    172 H75        -7.2490    1.1960    0.1800 hc        1 MOL      0.174184
    173 H76        -5.7220    0.7270   -0.4360 hc        1 MOL      0.174184
    174 N15        -5.8930    3.6570    1.6310 n         1 MOL     -0.094993
    175 C58        -6.3760    3.6070    3.0310 c3        1 MOL     -0.274594
    176 H77        -7.1730    4.3380    3.1660 h1        1 MOL      0.101592
    177 H78        -6.7580    2.6090    3.2490 h1        1 MOL      0.101592
    178 H79        -5.5540    3.8370    3.7080 h1        1 MOL      0.101592
    179 H80        -4.8940    3.5540    1.4950 hn        1 MOL      0.191340
    180 Ca1        -8.1770   -3.1190   -0.4800 Ca        1 MOL      1.648139
    181 O27        -8.3760   -2.6520   -2.9990 oh        1 MOL     -0.796585
    182 H81        -8.6150   -2.7930   -3.9150 ho        1 MOL      0.375378
    183 H82        -8.0350   -1.7550   -2.9820 ho        1 MOL      0.375378
    184 O28        -6.9400   -5.2510    0.3460 oh        1 MOL     -0.796585
    185 H83        -7.5390   -5.9230    0.6660 ho        1 MOL      0.375378
    186 H84        -6.0700   -5.5410    0.6230 ho        1 MOL      0.375378
    187 O29        -6.9470   -2.1120    1.7180 oh        1 MOL     -0.796585
    188 H85        -6.5310   -2.8960    2.0820 ho        1 MOL      0.375378
    189 H86        -7.2130   -1.5990    2.4750 ho        1 MOL      0.375378
    190 O30       -10.8810   -2.7910   -0.6290 oh        1 MOL     -0.796585
    191 H87       -11.3670   -2.1760   -1.1820 ho        1 MOL      0.375378
    192 H88       -11.5500   -3.3830   -0.2910 ho        1 MOL      0.375378
    193 O31        -9.3470   -5.1930   -1.6330 oh        1 MOL     -0.796585
    194 H89        -9.6120   -6.0020   -1.1880 ho        1 MOL      0.375378
    195 H90        -9.4960   -5.3760   -2.5570 ho        1 MOL      0.375378
    196 O32        -9.6480   -4.2270    1.5360 oh        1 MOL     -0.796585
    197 H91       -10.5980   -4.2190    1.3940 ho        1 MOL      0.375378
    198 H92        -9.5550   -4.3610    2.4780 ho        1 MOL      0.375378
    199 O33        -5.5660   -2.9280   -1.3620 oh        1 MOL     -0.796585
    200 H93        -5.1620   -3.8020   -1.3720 ho        1 MOL      0.375378
    201 H94        -4.8460   -2.3270   -1.1880 ho        1 MOL      0.375378
@<TRIPOS>BOND
     1    1    2 1   
     2    1    4 1   
     3    1    5 1   
     4    1    6 1   
     5    2    3 2   
     6    2    7 1   
     7    7    8 1   
     8    7   15 1   
     9    8    9 1   
    10    8   11 1   
    11    8   16 1   
    12    9   10 2   
    13    9   19 1   
    14   11   12 1   
    15   11   17 1   
    16   11   18 1   
    17   12   13 1   
    18   12   14 1   
    19   19   20 1   
    20   19   27 1   
    21   20   21 1   
    22   20   23 1   
    23   20   28 1   
    24   21   22 2   
    25   21   38 1   
    26   23   24 1   
    27   23   25 1   
    28   23   29 1   
    29   24   26 1   
    30   24   30 1   
    31   24   31 1   
    32   25   32 1   
    33   25   33 1   
    34   25   34 1   
    35   26   35 1   
    36   26   36 1   
    37   26   37 1   
    38   38   39 1   
    39   38   46 1   
    40   39   40 1   
    41   39   42 1   
    42   39   47 1   
    43   40   41 2   
    44   40   50 1   
    45   42   43 1   
    46   42   48 1   
    47   42   49 1   
    48   43   44 1   
    49   43   45 1   
    50   50   51 1   
    51   50   54 1   
    52   51   52 1   
    53   51   55 1   
    54   51   56 1   
    55   52   53 2   
    56   52   57 1   
    57   57   58 1   
    58   57   65 1   
    59   58   59 1   
    60   58   61 1   
    61   58   66 1   
    62   59   60 2   
    63   59   69 1   
    64   61   62 1   
    65   61   67 1   
    66   61   68 1   
    67   62   63 1   
    68   62   64 1   
    69   69   70 1   
    70   69   73 1   
    71   70   71 1   
    72   70   74 1   
    73   70   75 1   
    74   71   72 2   
    75   71   76 1   
    76   76   77 1   
    77   76   85 1   
    78   77   78 1   
    79   77   80 1   
    80   77   86 1   
    81   78   79 2   
    82   78   93 1   
    83   80   81 1   
    84   80   87 1   
    85   80   88 1   
    86   81   82 1   
    87   81   89 1   
    88   81   90 1   
    89   82   83 1   
    90   82   84 2   
    91   83   91 1   
    92   83   92 1   
    93   93   94 1   
    94   93  100 1   
    95   94   95 1   
    96   94   97 1   
    97   94  101 1   
    98   95   96 2   
    99   95  109 1   
   100   97   98 1   
   101   97   99 1   
   102   97  102 1   
   103   98  103 1   
   104   98  104 1   
   105   98  105 1   
   106   99  106 1   
   107   99  107 1   
   108   99  108 1   
   109  109  110 1   
   110  109  117 1   
   111  110  111 1   
   112  110  113 1   
   113  110  118 1   
   114  111  112 2   
   115  111  123 1   
   116  113  114 1   
   117  113  119 1   
   118  113  120 1   
   119  114  115 1   
   120  114  116 2   
   121  115  121 1   
   122  115  122 1   
   123  123  124 1   
   124  123  135 1   
   125  124  125 1   
   126  124  127 1   
   127  124  136 1   
   128  125  126 2   
   129  125  144 1   
   130  127  128 1   
   131  127  137 1   
   132  127  138 1   
   133  128  129 ar  
   134  128  130 ar  
   135  129  131 ar  
   136  129  139 1   
   137  130  132 ar  
   138  130  140 1   
   139  131  133 ar  
   140  131  141 1   
   141  132  133 ar  
   142  132  142 1   
   143  133  134 1   
   144  134  143 1   
   145  144  145 1   
   146  144  153 1   
   147  145  146 1   
   148  145  148 1   
   149  145  154 1   
   150  146  147 2   
   151  146  159 1   
   152  148  149 1   
   153  148  155 1   
   154  148  156 1   
   155  149  150 1   
   156  149  157 1   
   157  149  158 1   
   158  150  151 1   
   159  150  152 1   
   160  159  160 1   
   161  159  168 1   
   162  160  161 1   
   163  160  163 1   
   164  160  169 1   
   165  161  162 2   
   166  161  174 1   
   167  163  164 1   
   168  163  170 1   
   169  163  171 1   
   170  164  165 1   
   171  164  172 1   
   172  164  173 1   
   173  165  166 1   
   174  165  167 1   
   175  174  175 1   
   176  174  179 1   
   177  175  176 1   
   178  175  177 1   
   179  175  178 1   
   180  181  182 1   
   181  181  183 1   
   182  184  185 1   
   183  184  186 1   
   184  187  188 1   
   185  187  189 1   
   186  190  191 1   
   187  190  192 1   
   188  193  194 1   
   189  193  195 1   
   190  196  197 1   
   191  196  198 1   
   192  199  200 1   
   193  199  201 1   
@<TRIPOS>SUBSTRUCTURE
     1 MOL         1 TEMP              0 ****  ****    0 ROOT
