@<TRIPOS>MOLECULE
MOL
  184   179     1     0     0
SMALL
resp


@<TRIPOS>ATOM
      1 C1          5.3520   -6.2040    3.3610 c3        1 MOL     -0.443885
      2 C2          4.5800   -5.0190    2.7640 c         1 MOL      0.720212
      3 O1          3.5650   -4.6070    3.2970 o         1 MOL     -0.580211
      4 H1          5.5290   -6.0260    4.4220 hc        1 MOL      0.109491
      5 H2          4.7690   -7.1170    3.2400 hc        1 MOL      0.109491
      6 H3          6.3080   -6.3120    2.8470 hc        1 MOL      0.109491
      7 N1          4.9270   -4.5060    1.5660 n         1 MOL     -0.324170
      8 C3          5.8960   -5.0910    0.7230 c3        1 MOL     -0.099754
      9 C4          5.5150   -4.6800   -0.7400 c         1 MOL      0.365246
     10 O2          4.3310   -4.6200   -1.0630 o         1 MOL     -0.324639
     11 C5          7.3610   -4.5480    1.0620 c3        1 MOL     -0.125034
     12 C6          7.3600   -3.1130    1.3630 c         1 MOL      0.606792
     13 O3          7.5510   -2.7480    2.5310 o         1 MOL     -0.691211
     14 O4          7.2580   -2.2200    0.4880 o         1 MOL     -0.691211
     15 H4          4.4300   -3.7190    1.1730 hn        1 MOL      0.182638
     16 H5          5.9030   -6.1790    0.7980 h1        1 MOL      0.112457
     17 H6          8.0170   -4.7160    0.2090 hc        1 MOL      0.013127
     18 H7          7.7040   -5.1470    1.9070 hc        1 MOL      0.013127
     19 N2          6.4050   -4.4610   -1.6910 n         1 MOL     -0.450155
     20 C7          6.1320   -3.9930   -3.0750 c3        1 MOL      0.285242
     21 C8          5.1200   -2.8120   -3.1270 c         1 MOL      0.356148
     22 O5          4.2900   -2.7400   -4.0450 o         1 MOL     -0.476196
     23 C9          5.7440   -5.2520   -3.9500 c3        1 MOL     -0.198018
     24 H8          7.3770   -4.6560   -1.4920 hn        1 MOL      0.265398
     25 H9          7.0440   -3.6350   -3.5470 h1        1 MOL     -0.001373
     26 H10         6.6460   -5.8680   -4.0140 hc        1 MOL      0.048710
     27 H11         4.9030   -5.6910   -3.4250 hc        1 MOL      0.048710
     28 H12         5.5920   -4.9210   -4.9810 hc        1 MOL      0.048710
     29 N3          5.2580   -1.8630   -2.2200 n         1 MOL     -0.345244
     30 C10         4.5960   -0.5940   -2.2420 c3        1 MOL      0.076143
     31 C11         5.5320    0.5270   -1.6830 c         1 MOL      0.308958
     32 O6          5.9930    0.4610   -0.5440 o         1 MOL     -0.389572
     33 C12         3.1890   -0.6350   -1.5140 c3        1 MOL      0.106781
     34 C13         3.1230   -1.6140   -0.3230 c         1 MOL      0.616980
     35 O7          2.0650   -2.2080   -0.1360 o         1 MOL     -0.602253
     36 O8          4.0620   -1.6410    0.5310 o         1 MOL     -0.602253
     37 H13         6.0420   -1.9940   -1.5880 hn        1 MOL      0.203822
     38 H14         4.3730   -0.2610   -3.2470 h1        1 MOL     -0.015205
     39 H15         2.3520   -0.8650   -2.1710 hc        1 MOL     -0.029816
     40 H16         3.0510    0.3680   -1.0860 hc        1 MOL     -0.029816
     41 N4          5.9650    1.4100   -2.5780 n         1 MOL     -0.240875
     42 C14         6.9260    2.5080   -2.4030 c3        1 MOL     -0.376015
     43 C15         6.2930    3.7860   -1.8060 c         1 MOL      0.483319
     44 O9          7.0560    4.7400   -1.5190 o         1 MOL     -0.554529
     45 H17         5.5180    1.2650   -3.4750 hn        1 MOL      0.253661
     46 H18         7.4070    2.7670   -3.3490 h1        1 MOL      0.188927
     47 H19         7.6350    2.1260   -1.6590 h1        1 MOL      0.188927
     48 N5          4.9910    3.8120   -1.4730 n         1 MOL     -0.328499
     49 C16         4.3230    4.9230   -0.7940 c3        1 MOL      0.208258
     50 C17         3.5890    4.3770    0.4840 c         1 MOL      0.449881
     51 O10         4.0740    3.4300    1.0980 o         1 MOL     -0.514972
     52 C18         3.4240    5.5100   -1.8200 c3        1 MOL     -0.309843
     53 C19         3.0840    6.9520   -1.5780 c         1 MOL      0.682548
     54 N6          3.8420    7.9320   -2.0800 n         1 MOL     -0.779588
     55 O11         2.2360    7.2800   -0.7670 o         1 MOL     -0.534430
     56 H20         4.4130    3.1320   -1.9400 hn        1 MOL      0.249947
     57 H21         5.0430    5.6510   -0.4300 h1        1 MOL      0.042587
     58 H22         2.5750    4.8310   -1.8560 hc        1 MOL      0.094929
     59 H23         3.8450    5.5170   -2.8260 hc        1 MOL      0.094929
     60 H24         4.5850    7.7730   -2.7470 hn        1 MOL      0.364288
     61 H25         3.7900    8.8520   -1.6750 hn        1 MOL      0.364288
     62 N7          2.4300    4.9220    0.7760 n         1 MOL     -0.360857
     63 C20         1.6090    4.4030    1.8770 c3        1 MOL     -0.213063
     64 C21         1.1360    3.0300    1.5390 c         1 MOL      0.304378
     65 O12         1.3760    2.1740    2.4130 o         1 MOL     -0.513257
     66 H26         2.1280    5.6940    0.2050 hn        1 MOL      0.243038
     67 H27         0.7290    5.0450    2.0190 h1        1 MOL      0.177537
     68 H28         2.1090    4.4310    2.8450 h1        1 MOL      0.177537
     69 N8          0.4390    2.7010    0.4630 n         1 MOL     -0.103818
     70 C22        -0.1730    3.4900   -0.6500 c3        1 MOL      0.067010
     71 C23        -1.4260    4.1990   -0.1540 c         1 MOL      0.382697
     72 O13        -1.7160    5.2820   -0.6180 o         1 MOL     -0.496109
     73 C24        -0.5650    2.6500   -1.8230 c3        1 MOL      0.456876
     74 C25        -0.9140    3.3890   -3.1350 c3        1 MOL     -0.225777
     75 O14         0.4820    1.7850   -2.1560 oh        1 MOL     -0.681829
     76 H29         0.2920    1.7050    0.4200 hn        1 MOL      0.202764
     77 H30         0.4650    4.2950   -1.0150 h1        1 MOL     -0.026369
     78 H31        -1.3480    1.9790   -1.4950 h1        1 MOL      0.002912
     79 H32        -0.0050    0.9940   -2.3940 ho        1 MOL      0.398068
     80 H33        -0.0530    3.9440   -3.5190 hc        1 MOL      0.054266
     81 H34        -1.2370    2.6780   -3.9000 hc        1 MOL      0.054266
     82 H35        -1.6570    4.1410   -2.8690 hc        1 MOL      0.054266
     83 N9         -2.1820    3.6090    0.7730 n         1 MOL     -0.168616
     84 C26        -3.4910    4.1830    1.1900 c3        1 MOL      0.058597
     85 C27        -4.3820    4.4470   -0.0320 c         1 MOL      0.474844
     86 O15        -4.8350    5.5780   -0.2240 o         1 MOL     -0.554708
     87 C28        -3.3900    5.3280    2.2020 c3        1 MOL      0.222035
     88 C29        -2.1590    5.2520    3.1450 c3        1 MOL      0.101984
     89 C30        -4.7790    5.5120    2.8860 c3        1 MOL     -0.355044
     90 C31        -2.2120    4.1380    4.1510 c3        1 MOL     -0.242920
     91 H36        -1.9000    2.7000    1.1040 hn        1 MOL      0.158888
     92 H37        -3.9640    3.3660    1.7200 h1        1 MOL      0.038915
     93 H38        -3.0920    6.1860    1.5960 hc        1 MOL     -0.032041
     94 H39        -2.2730    6.1840    3.6980 hc        1 MOL     -0.044945
     95 H40        -1.2520    5.3650    2.5560 hc        1 MOL     -0.044945
     96 H41        -5.5010    5.7720    2.1030 hc        1 MOL      0.081680
     97 H42        -5.0560    4.5990    3.4110 hc        1 MOL      0.081680
     98 H43        -4.6420    6.2750    3.6440 hc        1 MOL      0.081680
     99 H44        -1.9870    3.2080    3.6210 hc        1 MOL      0.052533
    100 H45        -1.4000    4.3660    4.8410 hc        1 MOL      0.052533
    101 H46        -3.1870    4.0080    4.6250 hc        1 MOL      0.052533
    102 N10        -4.7680    3.4780   -0.8770 n         1 MOL     -0.355976
    103 C32        -4.3780    2.0460   -0.9610 c3        1 MOL      0.143369
    104 C33        -5.2170    1.0790    0.0120 c         1 MOL      0.375864
    105 O16        -4.6060    0.3130    0.7510 o         1 MOL     -0.480420
    106 C34        -4.4410    1.6470   -2.4240 c3        1 MOL     -0.125088
    107 C35        -5.8300    1.8150   -3.1450 c         1 MOL      0.552614
    108 O17        -6.0590    1.1440   -4.2150 o         1 MOL     -0.640661
    109 O18        -6.7600    2.4270   -2.5330 o         1 MOL     -0.640661
    110 H47        -5.4910    3.7340   -1.5360 hn        1 MOL      0.238777
    111 H48        -3.3500    2.0080   -0.5850 h1        1 MOL     -0.074539
    112 H49        -4.1000    0.6220   -2.5500 hc        1 MOL      0.041649
    113 H50        -3.6330    2.1680   -2.9250 hc        1 MOL      0.041649
    114 N11        -6.5360    1.1010    0.1180 n         1 MOL     -0.494200
    115 C36        -7.3810   -0.0190    0.3770 c3        1 MOL      0.416830
    116 C37        -7.9250   -0.7200   -0.9520 c         1 MOL      0.519001
    117 O19        -8.6030   -0.0930   -1.7200 o         1 MOL     -0.532230
    118 C38        -8.5350    0.3910    1.3100 c3        1 MOL     -0.271765
    119 C39        -9.5090   -0.6970    1.7190 ca        1 MOL      0.024644
    120 C40       -10.5540   -1.1770    0.8580 ca        1 MOL     -0.107886
    121 C41        -9.4430   -1.2970    2.9870 ca        1 MOL     -0.107886
    122 C42       -11.3400   -2.2480    1.2910 ca        1 MOL     -0.130319
    123 C43       -10.1990   -2.3630    3.3950 ca        1 MOL     -0.130319
    124 C44       -11.1780   -2.8790    2.5570 ca        1 MOL     -0.140581
    125 H51        -6.9630    1.8670   -0.3830 hn        1 MOL      0.254101
    126 H52        -6.8170   -0.7620    0.9530 h1        1 MOL     -0.050501
    127 H53        -9.1400    1.0700    0.7040 hc        1 MOL      0.088861
    128 H54        -8.1300    0.9440    2.1590 hc        1 MOL      0.088861
    129 H55       -10.6860   -0.8030   -0.1550 ha        1 MOL      0.095885
    130 H56        -8.7910   -0.9440    3.7620 ha        1 MOL      0.095885
    131 H57       -12.0660   -2.6000    0.5860 ha        1 MOL      0.101112
    132 H58       -10.1630   -2.6680    4.4330 ha        1 MOL      0.101112
    133 H59       -11.8690   -3.6780    2.7980 ha        1 MOL      0.103368
    134 N12        -7.7640   -2.0420   -1.1470 n         1 MOL      0.007899
    135 C45        -6.9520   -2.9970   -0.4100 c3        1 MOL      0.104418
    136 C46        -5.4090   -2.7040   -0.5300 c         1 MOL      0.745778
    137 O20        -5.0700   -1.9480   -1.4540 o         1 MOL     -0.597735
    138 C47        -7.3620   -4.3690   -0.8910 c3        1 MOL     -0.238532
    139 C48        -7.8790   -4.2490   -2.3230 c3        1 MOL      0.030655
    140 C49        -8.4100   -2.7620   -2.2550 c3        1 MOL     -0.136340
    141 H60        -7.1360   -2.8630    0.6570 h1        1 MOL     -0.069991
    142 H61        -6.4840   -5.0250   -0.8500 hc        1 MOL      0.043585
    143 H62        -8.1790   -4.7330   -0.2590 hc        1 MOL      0.043585
    144 H63        -7.0890   -4.2550   -3.0610 hc        1 MOL      0.035413
    145 H64        -8.6100   -5.0000   -2.6260 hc        1 MOL      0.035413
    146 H65        -8.1260   -2.2640   -3.1850 h1        1 MOL      0.062329
    147 H66        -9.4860   -2.7420   -2.0620 h1        1 MOL      0.062329
    148 N13        -4.5720   -3.2260    0.3080 n         1 MOL     -0.517258
    149 C50        -3.1210   -2.9410    0.1540 c3        1 MOL      0.065179
    150 C51        -2.3370   -3.1590    1.4610 c         1 MOL      0.471847
    151 O21        -1.2220   -3.6150    1.4810 o         1 MOL     -0.486050
    152 C52        -2.4420   -3.7060   -1.0270 c3        1 MOL      0.056208
    153 C53        -2.3100   -5.2080   -0.9630 c3        1 MOL      0.009221
    154 C54        -1.5120   -5.7190   -2.1700 c         1 MOL      0.648557
    155 O22        -0.3830   -5.2800   -2.4280 o         1 MOL     -0.683816
    156 O23        -2.1350   -6.4480   -2.9690 o         1 MOL     -0.683816
    157 H67        -4.8740   -3.9050    0.9910 hn        1 MOL      0.277243
    158 H68        -2.9750   -1.8860   -0.0600 h1        1 MOL      0.058826
    159 H69        -1.4980   -3.1740   -1.1110 hc        1 MOL      0.029087
    160 H70        -3.0770   -3.4980   -1.8900 hc        1 MOL      0.029087
    161 H71        -3.2420   -5.7700   -0.9800 hc        1 MOL     -0.064337
    162 H72        -1.8180   -5.5520   -0.0470 hc        1 MOL     -0.064337
    163 N14        -2.8690   -2.9750    2.6700 n         1 MOL     -0.406974
    164 C55        -4.0580   -2.1700    3.0580 c3        1 MOL      0.080177
    165 H73        -4.8740   -2.8370    3.3340 h1        1 MOL      0.003870
    166 H74        -3.8050   -1.5330    3.9070 h1        1 MOL      0.003870
    167 H75        -4.3660   -1.5490    2.2170 h1        1 MOL      0.003870
    168 H76        -2.2560   -3.3180    3.4010 hn        1 MOL      0.254085
    169 Ca1         6.0770   -0.4600    1.9580 Ca        1 MOL      1.789606
    170 O24         8.7350    0.2600    1.2600 oh        1 MOL     -0.868114
    171 H77         9.4100   -0.1270    0.7020 ho        1 MOL      0.405245
    172 H78         9.1640    0.3860    2.0990 ho        1 MOL      0.405245
    173 O25         4.5180   -1.8510    3.4790 oh        1 MOL     -0.868114
    174 H79         4.5940   -2.5120    4.1780 ho        1 MOL      0.405245
    175 H80         3.6280   -1.9490    3.1470 ho        1 MOL      0.405245
    176 O26         3.9190    1.0470    2.0280 oh        1 MOL     -0.868114
    177 H81         2.9770    0.9210    2.0850 ho        1 MOL      0.405245
    178 H82         4.0150    1.9270    1.6420 ho        1 MOL      0.405245
    179 O27         6.4550    2.2310    1.8920 oh        1 MOL     -0.868114
    180 H83         5.9230    2.5970    1.1830 ho        1 MOL      0.405245
    181 H84         7.0520    2.9310    2.1330 ho        1 MOL      0.405245
    182 O28         7.4480    0.3030    4.1810 oh        1 MOL     -0.868114
    183 H85         7.2720    1.2020    4.4480 ho        1 MOL      0.405245
    184 H86         8.3050    0.0960    4.5540 ho        1 MOL      0.405245
@<TRIPOS>BOND
     1    1    2 1   
     2    1    4 1   
     3    1    5 1   
     4    1    6 1   
     5    2    3 2   
     6    2    7 1   
     7    7    8 1   
     8    7   15 1   
     9    8    9 1   
    10    8   11 1   
    11    8   16 1   
    12    9   10 2   
    13    9   19 1   
    14   11   12 1   
    15   11   17 1   
    16   11   18 1   
    17   12   13 1   
    18   12   14 1   
    19   19   20 1   
    20   19   24 1   
    21   20   21 1   
    22   20   23 1   
    23   20   25 1   
    24   21   22 2   
    25   21   29 1   
    26   23   26 1   
    27   23   27 1   
    28   23   28 1   
    29   29   30 1   
    30   29   37 1   
    31   30   31 1   
    32   30   33 1   
    33   30   38 1   
    34   31   32 2   
    35   31   41 1   
    36   33   34 1   
    37   33   39 1   
    38   33   40 1   
    39   34   35 1   
    40   34   36 1   
    41   41   42 1   
    42   41   45 1   
    43   42   43 1   
    44   42   46 1   
    45   42   47 1   
    46   43   44 2   
    47   43   48 1   
    48   48   49 1   
    49   48   56 1   
    50   49   50 1   
    51   49   52 1   
    52   49   57 1   
    53   50   51 2   
    54   50   62 1   
    55   52   53 1   
    56   52   58 1   
    57   52   59 1   
    58   53   54 1   
    59   53   55 2   
    60   54   60 1   
    61   54   61 1   
    62   62   63 1   
    63   62   66 1   
    64   63   64 1   
    65   63   67 1   
    66   63   68 1   
    67   64   65 2   
    68   64   69 1   
    69   69   70 1   
    70   69   76 1   
    71   70   71 1   
    72   70   73 1   
    73   70   77 1   
    74   71   72 2   
    75   71   83 1   
    76   73   74 1   
    77   73   75 1   
    78   73   78 1   
    79   74   80 1   
    80   74   81 1   
    81   74   82 1   
    82   75   79 1   
    83   83   84 1   
    84   83   91 1   
    85   84   85 1   
    86   84   87 1   
    87   84   92 1   
    88   85   86 2   
    89   85  102 1   
    90   87   88 1   
    91   87   89 1   
    92   87   93 1   
    93   88   90 1   
    94   88   94 1   
    95   88   95 1   
    96   89   96 1   
    97   89   97 1   
    98   89   98 1   
    99   90   99 1   
   100   90  100 1   
   101   90  101 1   
   102  102  103 1   
   103  102  110 1   
   104  103  104 1   
   105  103  106 1   
   106  103  111 1   
   107  104  105 2   
   108  104  114 1   
   109  106  107 1   
   110  106  112 1   
   111  106  113 1   
   112  107  108 1   
   113  107  109 1   
   114  114  115 1   
   115  114  125 1   
   116  115  116 1   
   117  115  118 1   
   118  115  126 1   
   119  116  117 2   
   120  116  134 1   
   121  118  119 1   
   122  118  127 1   
   123  118  128 1   
   124  119  120 ar  
   125  119  121 ar  
   126  120  122 ar  
   127  120  129 1   
   128  121  123 ar  
   129  121  130 1   
   130  122  124 ar  
   131  122  131 1   
   132  123  124 ar  
   133  123  132 1   
   134  124  133 1   
   135  134  135 1   
   136  134  140 1   
   137  135  136 1   
   138  135  138 1   
   139  135  141 1   
   140  136  137 2   
   141  136  148 1   
   142  138  139 1   
   143  138  142 1   
   144  138  143 1   
   145  139  140 1   
   146  139  144 1   
   147  139  145 1   
   148  140  146 1   
   149  140  147 1   
   150  148  149 1   
   151  148  157 1   
   152  149  150 1   
   153  149  152 1   
   154  149  158 1   
   155  150  151 2   
   156  150  163 1   
   157  152  153 1   
   158  152  159 1   
   159  152  160 1   
   160  153  154 1   
   161  153  161 1   
   162  153  162 1   
   163  154  155 1   
   164  154  156 1   
   165  163  164 1   
   166  163  168 1   
   167  164  165 1   
   168  164  166 1   
   169  164  167 1   
   170  170  171 1   
   171  170  172 1   
   172  173  174 1   
   173  173  175 1   
   174  176  177 1   
   175  176  178 1   
   176  179  180 1   
   177  179  181 1   
   178  182  183 1   
   179  182  184 1   
@<TRIPOS>SUBSTRUCTURE
     1 MOL         1 TEMP              0 ****  ****    0 ROOT
