@<TRIPOS>MOLECULE
MOL
  181   177     1     0     0
SMALL
resp


@<TRIPOS>ATOM
      1 C1          9.3880   -5.9840    1.9280 c3        1 MOL     -0.222179
      2 C2          8.1620   -5.0980    1.4650 c         1 MOL      0.680386
      3 O1          6.9940   -5.4070    1.7450 o         1 MOL     -0.573313
      4 H1          9.1230   -6.5240    2.8360 hc        1 MOL      0.051496
      5 H2          9.6380   -6.6980    1.1420 hc        1 MOL      0.051496
      6 H3         10.2470   -5.3430    2.1250 hc        1 MOL      0.051496
      7 N1          8.3840   -3.9770    0.7830 n         1 MOL     -0.620169
      8 C3          9.6100   -3.2020    0.4630 c3        1 MOL      0.341631
      9 C4          9.5400   -2.6470   -0.9510 c         1 MOL      0.401829
     10 O2          8.6730   -2.9190   -1.8380 o         1 MOL     -0.483755
     11 C5          9.8160   -2.1190    1.5970 c3        1 MOL     -0.307202
     12 C6          8.6980   -1.0730    1.4340 c         1 MOL      0.744028
     13 O3          7.7030   -1.1250    2.1570 o         1 MOL     -0.706591
     14 O4          8.8910   -0.0950    0.7110 o         1 MOL     -0.706591
     15 H4          7.5690   -3.5200    0.3930 hn        1 MOL      0.354369
     16 H5         10.3910   -3.9680    0.5200 h1        1 MOL     -0.015973
     17 H6         10.7970   -1.6420    1.4900 hc        1 MOL      0.047307
     18 H7          9.8010   -2.6420    2.5520 hc        1 MOL      0.047307
     19 N2         10.5260   -1.7780   -1.1970 n         1 MOL     -0.513837
     20 C7         10.8350   -1.1810   -2.5540 c3        1 MOL      0.350936
     21 C8          9.6760   -0.2730   -3.1500 c         1 MOL      0.330540
     22 O5          9.5990   -0.0310   -4.3700 o         1 MOL     -0.544435
     23 C9         11.3500   -2.3060   -3.5150 c3        1 MOL     -0.567947
     24 H8         11.2480   -1.6790   -0.4930 hn        1 MOL      0.291447
     25 H9         11.5700   -0.4080   -2.3440 h1        1 MOL      0.002956
     26 H10        12.0640   -2.9920   -3.0570 hc        1 MOL      0.154322
     27 H11        10.4780   -2.7380   -4.0090 hc        1 MOL      0.154322
     28 H12        11.9650   -1.7890   -4.2660 hc        1 MOL      0.154322
     29 N3          8.8070    0.1860   -2.3070 n         1 MOL     -0.049953
     30 C10         7.6750    1.0620   -2.6720 c3        1 MOL      0.030877
     31 C11         7.4620    2.3560   -1.8250 c         1 MOL      0.425692
     32 O6          7.9650    2.6150   -0.7000 o         1 MOL     -0.577954
     33 C12         6.3270    0.2710   -2.6860 c3        1 MOL     -0.121849
     34 C13         5.8740   -0.4250   -1.3370 c         1 MOL      0.959552
     35 O7          4.9470   -1.2570   -1.5360 o         1 MOL     -0.768883
     36 O8          6.2880   -0.0270   -0.2120 o         1 MOL     -0.768883
     37 H13         8.8620   -0.0750   -1.3320 hn        1 MOL      0.044276
     38 H14         7.8340    1.3750   -3.7060 h1        1 MOL      0.049257
     39 H15         6.4460   -0.4720   -3.4800 hc        1 MOL      0.026263
     40 H16         5.4940    0.9420   -2.8840 hc        1 MOL      0.026263
     41 N4          6.5150    3.2350   -2.2940 n         1 MOL     -0.385798
     42 C14         5.9880    4.2960   -1.4270 c3        1 MOL     -0.243861
     43 C15         4.9760    3.8250   -0.4580 c         1 MOL      0.452939
     44 O9          5.2750    2.9800    0.3470 o         1 MOL     -0.485043
     45 H17         6.0570    3.0510   -3.1790 hn        1 MOL      0.307154
     46 H18         5.4510    5.0060   -2.0390 h1        1 MOL      0.134399
     47 H19         6.7610    4.8560   -0.9050 h1        1 MOL      0.134399
     48 N5          3.7470    4.3800   -0.3660 n         1 MOL     -0.481070
     49 C16         2.7790    4.1810    0.7730 c3        1 MOL     -0.065814
     50 C17         1.9900    2.9040    0.5010 c         1 MOL      0.668859
     51 O10         0.8310    2.8050    0.8640 o         1 MOL     -0.484212
     52 C18         1.8560    5.3730    0.8670 c3        1 MOL     -0.339719
     53 C19         2.4100    6.4960    1.7130 c         1 MOL      0.754729
     54 N6          3.0630    7.5290    1.2250 n         1 MOL     -0.772159
     55 O11         2.2300    6.5010    2.8930 o         1 MOL     -0.559388
     56 H20         3.4860    5.1320   -0.9920 hn        1 MOL      0.304965
     57 H21         3.3500    4.0210    1.6800 h1        1 MOL      0.147627
     58 H22         0.8680    5.1740    1.2800 hc        1 MOL      0.127916
     59 H23         1.7060    5.7230   -0.1530 hc        1 MOL      0.127916
     60 H24         3.2360    7.6610    0.2320 hn        1 MOL      0.327316
     61 H25         3.5830    8.0760    1.9050 hn        1 MOL      0.327316
     62 N7          2.6130    1.8600    0.0160 n         1 MOL     -0.547675
     63 C20         2.0190    0.5190   -0.2420 c3        1 MOL      0.089406
     64 C21         1.9470   -0.4590    0.8640 c         1 MOL      0.428959
     65 O12         2.0590   -0.1030    2.0400 o         1 MOL     -0.471687
     66 H26         3.5610    1.9670   -0.3050 hn        1 MOL      0.320150
     67 H27         2.5760    0.0360   -1.0430 h1        1 MOL      0.068688
     68 H28         0.9790    0.6800   -0.5470 h1        1 MOL      0.068688
     69 N8          1.4740   -1.6740    0.5030 n         1 MOL     -0.384515
     70 C22         1.4520   -2.2780   -0.8600 c3        1 MOL      0.082915
     71 C23         0.1320   -1.8050   -1.5550 c         1 MOL      0.281893
     72 O13         0.0010   -1.6270   -2.7330 o         1 MOL     -0.538176
     73 C24         1.5670   -3.7850   -0.8320 c3        1 MOL      0.326051
     74 C25         3.0260   -4.2310   -1.0680 c3        1 MOL     -0.375421
     75 O14         0.9260   -4.4700    0.1880 oh        1 MOL     -0.615486
     76 H29         1.5420   -2.3870    1.2140 hn        1 MOL      0.286797
     77 H30         2.2250   -1.8380   -1.4900 h1        1 MOL      0.082231
     78 H31         0.9560   -4.1150   -1.6800 h1        1 MOL     -0.004373
     79 H32         0.9400   -5.3780   -0.1320 ho        1 MOL      0.406740
     80 H33         3.0590   -5.2320   -1.5130 hc        1 MOL      0.097337
     81 H34         3.5960   -3.6310   -1.7790 hc        1 MOL      0.097337
     82 H35         3.5750   -4.3100   -0.1290 hc        1 MOL      0.097337
     83 N9         -0.8380   -1.4690   -0.7280 n         1 MOL     -0.011082
     84 C26        -2.2200   -1.0660   -1.0810 c3        1 MOL     -0.157853
     85 C27        -2.8690   -0.0530   -0.0580 c         1 MOL      0.418347
     86 O15        -2.5200   -0.0770    1.0780 o         1 MOL     -0.516110
     87 C28        -3.1480   -2.2490   -1.4110 c3        1 MOL      0.153042
     88 C29        -3.1500   -3.2410   -0.2490 c3        1 MOL      0.028759
     89 C30        -2.7230   -3.0160   -2.6520 c3        1 MOL     -0.168903
     90 C31        -4.1940   -4.2860   -0.3300 c3        1 MOL     -0.271380
     91 H36        -0.8000   -1.9130    0.1750 hn        1 MOL      0.100744
     92 H37        -2.0730   -0.4770   -1.9810 h1        1 MOL      0.128526
     93 H38        -4.1950   -1.9810   -1.4690 hc        1 MOL      0.025271
     94 H39        -3.3060   -2.8030    0.7260 hc        1 MOL      0.026065
     95 H40        -2.2000   -3.7830   -0.2750 hc        1 MOL      0.026065
     96 H41        -3.5440   -3.6520   -2.9720 hc        1 MOL      0.034727
     97 H42        -2.5960   -2.3820   -3.5310 hc        1 MOL      0.034727
     98 H43        -1.8660   -3.6720   -2.5110 hc        1 MOL      0.034727
     99 H44        -4.2950   -4.7360    0.6620 hc        1 MOL      0.052109
    100 H45        -5.1390   -3.9460   -0.7580 hc        1 MOL      0.052109
    101 H46        -3.8060   -5.0440   -1.0110 hc        1 MOL      0.052109
    102 N10        -3.9150    0.7240   -0.3290 n         1 MOL     -0.260548
    103 C32        -4.6530    0.8140   -1.5770 c3        1 MOL     -0.067210
    104 C33        -6.1440    1.1620   -1.2490 c         1 MOL      0.500616
    105 O16        -6.4590    1.8700   -0.3130 o         1 MOL     -0.380784
    106 C34        -4.0660    1.9530   -2.4470 c3        1 MOL     -0.071229
    107 C35        -3.9970    3.3040   -1.7830 c         1 MOL      0.658668
    108 O17        -3.1270    3.5410   -0.9170 o         1 MOL     -0.675388
    109 O18        -4.8930    4.0990   -1.9900 o         1 MOL     -0.675388
    110 H47        -4.1280    1.4050    0.3830 hn        1 MOL      0.317940
    111 H48        -4.6730   -0.1460   -2.0940 h1        1 MOL      0.052648
    112 H49        -4.6480    2.0970   -3.3560 hc        1 MOL     -0.019032
    113 H50        -3.0780    1.7230   -2.8340 hc        1 MOL     -0.019032
    114 N11        -7.0920    0.7100   -2.0830 n         1 MOL     -0.682804
    115 C36        -8.5700    0.6620   -1.7850 c3        1 MOL      0.435197
    116 C37        -9.2440   -0.6860   -2.1610 c         1 MOL      0.283230
    117 O19        -8.8180   -1.2640   -3.1910 o         1 MOL     -0.534699
    118 C38        -9.3300    1.9170   -2.4170 c3        1 MOL     -0.093867
    119 C39       -10.5290    2.3960   -1.6030 ca        1 MOL     -0.198103
    120 C40       -11.7960    1.8170   -1.9600 ca        1 MOL      0.035675
    121 C41       -10.3190    3.1150   -0.4080 ca        1 MOL      0.035675
    122 C42       -12.9380    2.2100   -1.2160 ca        1 MOL     -0.262808
    123 C43       -11.4400    3.2840    0.4160 ca        1 MOL     -0.262808
    124 C44       -12.7200    2.8710    0.0270 ca        1 MOL     -0.009199
    125 H51        -6.8140    0.2150   -2.9200 hn        1 MOL      0.324577
    126 H52        -8.6360    0.7260   -0.7020 h1        1 MOL      0.027539
    127 H53        -9.5640    1.6810   -3.4570 hc        1 MOL      0.056893
    128 H54        -8.6180    2.7390   -2.5190 hc        1 MOL      0.056893
    129 H55       -11.8700    1.2800   -2.8910 ha        1 MOL      0.105735
    130 H56        -9.3320    3.4650   -0.1500 ha        1 MOL      0.105735
    131 H57       -13.9340    2.0060   -1.5670 ha        1 MOL      0.144273
    132 H58       -11.3410    3.7160    1.4040 ha        1 MOL      0.144273
    133 H59       -13.5720    3.0940    0.6670 ha        1 MOL      0.075125
    134 N12       -10.1450   -1.1260   -1.3510 n         1 MOL     -0.058871
    135 C45       -10.5220   -0.7390    0.0540 c3        1 MOL     -0.171631
    136 C46        -9.5290   -1.0560    1.1710 c         1 MOL      0.400316
    137 O20        -9.7560   -0.5670    2.3040 o         1 MOL     -0.493964
    138 C47       -11.9020   -1.4080    0.2860 c3        1 MOL     -0.228375
    139 C48       -12.4990   -1.7660   -1.1350 c3        1 MOL      0.030232
    140 C49       -11.1740   -2.0310   -1.8150 c3        1 MOL     -0.365313
    141 H60       -10.6720    0.3380    0.0400 h1        1 MOL      0.202948
    142 H61       -11.8580   -2.2980    0.9140 hc        1 MOL      0.110514
    143 H62       -12.6510   -0.8230    0.8140 hc        1 MOL      0.110514
    144 H63       -12.9990   -2.7200   -1.2430 hc        1 MOL      0.023369
    145 H64       -13.1090   -0.9900   -1.6090 hc        1 MOL      0.023369
    146 H65       -10.7670   -3.0140   -1.5320 h1        1 MOL      0.160802
    147 H66       -11.0960   -2.0770   -2.9070 h1        1 MOL      0.160802
    148 N13        -8.5250   -1.8480    0.9560 n         1 MOL     -0.262780
    149 C50        -7.5600   -2.3490    1.9700 c3        1 MOL      0.206106
    150 C51        -7.3080   -3.8660    1.7470 c         1 MOL      0.339966
    151 O21        -7.6010   -4.3320    0.6600 o         1 MOL     -0.562482
    152 C52        -6.2980   -1.5170    1.8870 c3        1 MOL     -0.180088
    153 C53        -6.3780   -0.0420    2.3740 c3        1 MOL      0.033466
    154 C54        -6.7430    0.1220    3.7980 c         1 MOL      0.606399
    155 O22        -6.7300   -0.8400    4.6110 o         1 MOL     -0.669947
    156 O23        -6.9960    1.3450    4.1150 o         1 MOL     -0.669947
    157 H67        -8.4030   -2.1500    0.0050 hn        1 MOL      0.247224
    158 H68        -8.0050   -2.1450    2.9470 h1        1 MOL      0.061736
    159 H69        -5.9690   -1.5360    0.8500 hc        1 MOL      0.068470
    160 H70        -5.5520   -2.0890    2.4250 hc        1 MOL      0.068470
    161 H71        -6.8960    0.5750    1.6480 hc        1 MOL     -0.014614
    162 H72        -5.3690    0.3480    2.2650 hc        1 MOL     -0.014614
    163 N14        -6.7000   -4.5860    2.6870 n         1 MOL     -0.316460
    164 C55        -6.3080   -4.1440    4.0740 c3        1 MOL     -0.053672
    165 H73        -6.3190   -5.0030    4.7450 h1        1 MOL      0.056468
    166 H74        -5.3070   -3.7150    4.0490 h1        1 MOL      0.056468
    167 H75        -7.0160   -3.3960    4.4310 h1        1 MOL      0.056468
    168 H76        -6.4710   -5.5410    2.4330 hn        1 MOL      0.258238
    169 Ca1         7.0120    1.4140    1.6120 Ca        1 MOL      1.761514
    170 O24         6.4680    3.9940    2.7520 oh        1 MOL     -0.779856
    171 H77         6.5150    4.8610    2.3510 ho        1 MOL      0.366251
    172 H78         6.0770    4.1420    3.6100 ho        1 MOL      0.366251
    173 O25         4.6430    1.0000    2.5430 oh        1 MOL     -0.779856
    174 H79         4.2220    1.5190    3.2180 ho        1 MOL      0.366251
    175 H80         3.9850    0.3480    2.2980 ho        1 MOL      0.366251
    176 O26         9.2960    2.3810    2.7850 oh        1 MOL     -0.779856
    177 H81         9.6140    2.4020    3.6890 ho        1 MOL      0.366251
    178 H82         9.6240    3.1890    2.4060 ho        1 MOL      0.366251
    179 O27         7.2230    0.9380    4.3900 oh        1 MOL     -0.779856
    180 H83         8.1840    0.8850    4.3720 ho        1 MOL      0.366251
    181 H84         7.0020    0.9130    5.3240 ho        1 MOL      0.366251
@<TRIPOS>BOND
     1    1    2 1   
     2    1    4 1   
     3    1    5 1   
     4    1    6 1   
     5    2    3 2   
     6    2    7 1   
     7    7    8 1   
     8    7   15 1   
     9    8    9 1   
    10    8   11 1   
    11    8   16 1   
    12    9   10 2   
    13    9   19 1   
    14   11   12 1   
    15   11   17 1   
    16   11   18 1   
    17   12   13 1   
    18   12   14 1   
    19   19   20 1   
    20   19   24 1   
    21   20   21 1   
    22   20   23 1   
    23   20   25 1   
    24   21   22 2   
    25   21   29 1   
    26   23   26 1   
    27   23   27 1   
    28   23   28 1   
    29   29   30 1   
    30   29   37 1   
    31   30   31 1   
    32   30   33 1   
    33   30   38 1   
    34   31   32 2   
    35   31   41 1   
    36   33   34 1   
    37   33   39 1   
    38   33   40 1   
    39   34   35 1   
    40   34   36 1   
    41   41   42 1   
    42   41   45 1   
    43   42   43 1   
    44   42   46 1   
    45   42   47 1   
    46   43   44 2   
    47   43   48 1   
    48   48   49 1   
    49   48   56 1   
    50   49   50 1   
    51   49   52 1   
    52   49   57 1   
    53   50   51 2   
    54   50   62 1   
    55   52   53 1   
    56   52   58 1   
    57   52   59 1   
    58   53   54 1   
    59   53   55 2   
    60   54   60 1   
    61   54   61 1   
    62   62   63 1   
    63   62   66 1   
    64   63   64 1   
    65   63   67 1   
    66   63   68 1   
    67   64   65 2   
    68   64   69 1   
    69   69   70 1   
    70   69   76 1   
    71   70   71 1   
    72   70   73 1   
    73   70   77 1   
    74   71   72 2   
    75   71   83 1   
    76   73   74 1   
    77   73   75 1   
    78   73   78 1   
    79   74   80 1   
    80   74   81 1   
    81   74   82 1   
    82   75   79 1   
    83   83   84 1   
    84   83   91 1   
    85   84   85 1   
    86   84   87 1   
    87   84   92 1   
    88   85   86 2   
    89   85  102 1   
    90   87   88 1   
    91   87   89 1   
    92   87   93 1   
    93   88   90 1   
    94   88   94 1   
    95   88   95 1   
    96   89   96 1   
    97   89   97 1   
    98   89   98 1   
    99   90   99 1   
   100   90  100 1   
   101   90  101 1   
   102  102  103 1   
   103  102  110 1   
   104  103  104 1   
   105  103  106 1   
   106  103  111 1   
   107  104  105 2   
   108  104  114 1   
   109  106  107 1   
   110  106  112 1   
   111  106  113 1   
   112  107  108 1   
   113  107  109 1   
   114  114  115 1   
   115  114  125 1   
   116  115  116 1   
   117  115  118 1   
   118  115  126 1   
   119  116  117 2   
   120  116  134 1   
   121  118  119 1   
   122  118  127 1   
   123  118  128 1   
   124  119  120 ar  
   125  119  121 ar  
   126  120  122 ar  
   127  120  129 1   
   128  121  123 ar  
   129  121  130 1   
   130  122  124 ar  
   131  122  131 1   
   132  123  124 ar  
   133  123  132 1   
   134  124  133 1   
   135  134  135 1   
   136  134  140 1   
   137  135  136 1   
   138  135  138 1   
   139  135  141 1   
   140  136  137 2   
   141  136  148 1   
   142  138  139 1   
   143  138  142 1   
   144  138  143 1   
   145  139  140 1   
   146  139  144 1   
   147  139  145 1   
   148  140  146 1   
   149  140  147 1   
   150  148  149 1   
   151  148  157 1   
   152  149  150 1   
   153  149  152 1   
   154  149  158 1   
   155  150  151 2   
   156  150  163 1   
   157  152  153 1   
   158  152  159 1   
   159  152  160 1   
   160  153  154 1   
   161  153  161 1   
   162  153  162 1   
   163  154  155 1   
   164  154  156 1   
   165  163  164 1   
   166  163  168 1   
   167  164  165 1   
   168  164  166 1   
   169  164  167 1   
   170  170  171 1   
   171  170  172 1   
   172  173  174 1   
   173  173  175 1   
   174  176  177 1   
   175  176  178 1   
   176  179  180 1   
   177  179  181 1   
@<TRIPOS>SUBSTRUCTURE
     1 MOL         1 TEMP              0 ****  ****    0 ROOT
