@<TRIPOS>MOLECULE
MOL
  181   177     1     0     0
SMALL
resp


@<TRIPOS>ATOM
      1 C1         -5.5490    6.3160    3.4620 c3        1 MOL     -0.333125
      2 C2         -5.3540    4.8240    3.5270 c         1 MOL      0.664700
      3 O1         -4.5490    4.3220    4.3020 o         1 MOL     -0.595447
      4 H1         -6.2600    6.6220    4.2290 hc        1 MOL      0.083145
      5 H2         -4.5960    6.8160    3.6300 hc        1 MOL      0.083145
      6 H3         -5.9350    6.5900    2.4800 hc        1 MOL      0.083145
      7 N1         -6.0610    4.0160    2.7300 n         1 MOL     -0.429776
      8 C3         -7.2870    4.3020    1.9780 c3        1 MOL      0.143355
      9 C4         -7.0900    3.9450    0.5070 c         1 MOL      0.356823
     10 O2         -6.5800    2.8890    0.2510 o         1 MOL     -0.388929
     11 C5         -8.4510    3.5640    2.6490 c3        1 MOL     -0.283712
     12 C6         -8.2800    2.0900    2.9350 c         1 MOL      0.755589
     13 O3         -8.9630    1.6100    3.8360 o         1 MOL     -0.701170
     14 O4         -7.5120    1.3940    2.2630 o         1 MOL     -0.701170
     15 H4         -5.7760    3.0500    2.7910 hn        1 MOL      0.240145
     16 H5         -7.7040    5.3000    1.8870 h1        1 MOL      0.017777
     17 H6         -9.3610    3.5790    2.0410 hc        1 MOL      0.071738
     18 H7         -8.6650    4.0350    3.6090 hc        1 MOL      0.071738
     19 N2         -7.4260    4.8190   -0.3590 n         1 MOL     -0.392117
     20 C7         -7.0410    4.7560   -1.8180 c3        1 MOL      0.098371
     21 C8         -7.5500    3.4830   -2.5830 c         1 MOL      0.520305
     22 O5         -8.5980    3.6230   -3.1880 o         1 MOL     -0.611027
     23 C9         -5.5230    4.9660   -1.9390 c3        1 MOL     -0.310282
     24 H8         -7.9620    5.6250   -0.0610 hn        1 MOL      0.283967
     25 H9         -7.4570    5.5720   -2.4100 h1        1 MOL      0.070151
     26 H10        -5.2130    4.8990   -2.9780 hc        1 MOL      0.092408
     27 H11        -5.2440    5.9420   -1.5450 hc        1 MOL      0.092408
     28 H12        -5.0190    4.1180   -1.4720 hc        1 MOL      0.092408
     29 N3         -6.8650    2.3740   -2.5740 n         1 MOL     -0.186719
     30 C10        -7.2160    1.0880   -3.2080 c3        1 MOL     -0.015295
     31 C11        -7.9280    0.1680   -2.2160 c         1 MOL      0.651697
     32 O6         -7.6410    0.2460   -1.0330 o         1 MOL     -0.576412
     33 C12        -5.9440    0.4290   -3.8260 c3        1 MOL     -0.241907
     34 C13        -4.6760    0.5390   -2.9930 c         1 MOL      0.665438
     35 O7         -4.7090    0.6560   -1.7470 o         1 MOL     -0.648398
     36 O8         -3.5440    0.4670   -3.5730 o         1 MOL     -0.648398
     37 H13        -6.1550    2.4430   -1.8560 hn        1 MOL      0.113639
     38 H14        -7.8990    1.2060   -4.0440 h1        1 MOL      0.070851
     39 H15        -5.8240    0.8770   -4.8060 hc        1 MOL      0.061558
     40 H16        -6.2090   -0.6030   -4.0600 hc        1 MOL      0.061558
     41 N4         -8.9850   -0.5570   -2.6560 n         1 MOL     -0.533223
     42 C14        -9.5340   -1.7610   -1.8720 c3        1 MOL     -0.045807
     43 C15        -8.4230   -2.7370   -1.5450 c         1 MOL      0.406930
     44 O9         -8.5430   -3.5330   -0.6020 o         1 MOL     -0.536719
     45 H17        -9.1450   -0.5810   -3.6500 hn        1 MOL      0.299752
     46 H18       -10.2210   -2.2960   -2.5220 h1        1 MOL      0.125593
     47 H19       -10.0570   -1.4500   -0.9630 h1        1 MOL      0.125593
     48 N5         -7.3200   -2.8580   -2.3530 n         1 MOL     -0.160702
     49 C16        -6.1180   -3.6820   -2.0760 c3        1 MOL     -0.237692
     50 C17        -5.1440   -3.0600   -0.9840 c         1 MOL      0.842388
     51 O10        -5.3900   -2.0360   -0.3800 o         1 MOL     -0.718184
     52 C18        -5.3710   -3.9020   -3.4090 c3        1 MOL     -0.159630
     53 C19        -6.2080   -4.6840   -4.3240 c         1 MOL      0.639007
     54 N6         -6.2830   -5.9490   -4.0390 n         1 MOL     -0.736294
     55 O11        -6.8450   -4.2500   -5.2540 o         1 MOL     -0.564025
     56 H20        -7.3950   -2.4160   -3.2650 hn        1 MOL      0.194965
     57 H21        -6.4480   -4.6550   -1.7090 h1        1 MOL      0.113196
     58 H22        -4.4040   -4.3820   -3.2570 hc        1 MOL      0.091204
     59 H23        -5.2540   -2.9470   -3.9130 hc        1 MOL      0.091204
     60 H24        -5.9350   -6.3830   -3.2000 hn        1 MOL      0.347832
     61 H25        -7.0050   -6.3600   -4.6210 hn        1 MOL      0.347832
     62 N7         -4.1490   -3.8360   -0.6510 n         1 MOL     -0.573238
     63 C20        -3.2240   -3.6060    0.4770 c3        1 MOL      0.155237
     64 C21        -2.2330   -4.7330    0.6970 c         1 MOL      0.574375
     65 O12        -2.1530   -5.7180   -0.0060 o         1 MOL     -0.549316
     66 H26        -3.9900   -4.6500   -1.2280 hn        1 MOL      0.278617
     67 H27        -3.8040   -3.3810    1.3820 h1        1 MOL      0.044119
     68 H28        -2.6500   -2.7100    0.2850 h1        1 MOL      0.044119
     69 N8         -1.3860   -4.6740    1.6980 n         1 MOL     -0.536371
     70 C22        -1.0020   -3.5560    2.5360 c3        1 MOL     -0.080825
     71 C23         0.3900   -3.0400    2.0230 c         1 MOL      0.598277
     72 O13         1.2050   -3.9000    1.6930 o         1 MOL     -0.489331
     73 C24        -0.8940   -4.0160    4.0130 c3        1 MOL      0.461227
     74 C25        -0.6420   -2.9030    5.0100 c3        1 MOL     -0.378675
     75 O14        -2.0470   -4.7080    4.4330 oh        1 MOL     -0.677534
     76 H29        -0.9070   -5.5530    1.8050 hn        1 MOL      0.342908
     77 H30        -1.6980   -2.7290    2.5360 h1        1 MOL      0.108003
     78 H31        -0.0340   -4.6820    3.9930 h1        1 MOL     -0.007319
     79 H32        -1.8250   -5.4100    5.0500 ho        1 MOL      0.404871
     80 H33        -1.5210   -2.2970    5.2140 hc        1 MOL      0.099259
     81 H34        -0.3460   -3.3130    5.9790 hc        1 MOL      0.099259
     82 H35         0.1240   -2.2440    4.5910 hc        1 MOL      0.099259
     83 N9          0.6810   -1.7240    1.8860 n         1 MOL     -0.654110
     84 C26         1.9810   -1.0790    1.4580 c3        1 MOL      0.354149
     85 C27         2.9070   -0.6050    2.5980 c         1 MOL      0.575131
     86 O15         2.4070    0.0050    3.4940 o         1 MOL     -0.582379
     87 C28         1.6830    0.1160    0.5000 c3        1 MOL     -0.066981
     88 C29         0.3520    0.8470    0.8400 c3        1 MOL      0.427353
     89 C30         1.6910   -0.2870   -0.9820 c3        1 MOL     -0.262635
     90 C31        -0.0960    2.1560    0.1690 c3        1 MOL     -0.246038
     91 H36         0.0310   -1.0780    2.2970 hn        1 MOL      0.217277
     92 H37         2.4250   -1.8520    0.8400 h1        1 MOL      0.055467
     93 H38         2.3660    0.9530    0.6610 hc        1 MOL      0.004184
     94 H39         0.3910    1.0880    1.9000 hc        1 MOL     -0.120434
     95 H40        -0.4460    0.1140    0.6830 hc        1 MOL     -0.120434
     96 H41         1.6150    0.6210   -1.5810 hc        1 MOL      0.073455
     97 H42         2.6610   -0.6780   -1.2670 hc        1 MOL      0.073455
     98 H43         0.9400   -1.0100   -1.2880 hc        1 MOL      0.073455
     99 H44        -1.1510    2.2560    0.3900 hc        1 MOL      0.046498
    100 H45         0.4530    3.0010    0.5990 hc        1 MOL      0.046498
    101 H46        -0.0340    2.1340   -0.9180 hc        1 MOL      0.046498
    102 N10         4.2350   -0.8760    2.5480 n         1 MOL     -0.586064
    103 C32         5.0080   -1.5690    1.4510 c3        1 MOL      0.061770
    104 C33         6.3100   -0.8550    1.1640 c         1 MOL      0.436455
    105 O16         6.7180   -0.0300    1.9830 o         1 MOL     -0.491493
    106 C34         5.1920   -3.0440    1.8420 c3        1 MOL      0.014730
    107 C35         5.6890   -3.3270    3.2950 c         1 MOL      0.695937
    108 O17         6.9380   -3.3240    3.5180 o         1 MOL     -0.722040
    109 O18         4.8280   -3.7470    4.1680 o         1 MOL     -0.722040
    110 H47         4.8390   -0.4890    3.2590 hn        1 MOL      0.359250
    111 H48         4.4360   -1.4620    0.5380 h1        1 MOL      0.027269
    112 H49         5.8200   -3.4890    1.0780 hc        1 MOL     -0.045332
    113 H50         4.2270   -3.5440    1.7390 hc        1 MOL     -0.045332
    114 N11         6.9840   -1.1820    0.0130 n         1 MOL     -0.450985
    115 C36         8.3360   -0.7910   -0.3700 c3        1 MOL      0.338662
    116 C37         8.5150   -0.6340   -1.8940 c         1 MOL      0.109424
    117 O19         8.1050   -1.4460   -2.7070 o         1 MOL     -0.479658
    118 C38         9.3210   -1.8290    0.2540 c3        1 MOL     -0.225110
    119 C39        10.7420   -1.6330    0.0510 ca        1 MOL      0.274056
    120 C40        11.4620   -2.0530   -1.0620 ca        1 MOL     -0.269098
    121 C41        11.5030   -1.0260    1.1030 ca        1 MOL     -0.269098
    122 C42        12.8120   -1.8370   -1.2510 ca        1 MOL     -0.058451
    123 C43        12.8830   -0.8910    0.9570 ca        1 MOL     -0.058451
    124 C44        13.5670   -1.2600   -0.2200 ca        1 MOL     -0.187731
    125 H51         6.5040   -1.8000   -0.6200 hn        1 MOL      0.321584
    126 H52         8.5020    0.1320    0.1950 h1        1 MOL      0.019451
    127 H53         9.1120   -2.7450   -0.2940 hc        1 MOL      0.071061
    128 H54         9.0900   -2.0160    1.3040 hc        1 MOL      0.071061
    129 H55        10.9380   -2.3970   -1.9460 ha        1 MOL      0.156400
    130 H56        11.0570   -0.6320    2.0030 ha        1 MOL      0.156400
    131 H57        13.3580   -2.1490   -2.1310 ha        1 MOL      0.084116
    132 H58        13.4880   -0.5200    1.7800 ha        1 MOL      0.084116
    133 H59        14.6110   -1.0030   -0.3480 ha        1 MOL      0.104259
    134 N12         9.1100    0.4160   -2.4700 n         1 MOL      0.197784
    135 C45         9.9330    1.4480   -1.8160 c3        1 MOL      0.188353
    136 C46         9.0570    2.3740   -0.9260 c         1 MOL      0.306229
    137 O20         9.5410    2.8810    0.1030 o         1 MOL     -0.586850
    138 C47        10.6260    2.2800   -2.8810 c3        1 MOL     -0.014142
    139 C48        10.5440    1.3460   -4.1380 c3        1 MOL     -0.195596
    140 C49         9.2440    0.5550   -3.9320 c3        1 MOL     -0.458324
    141 H60        10.6000    0.8940   -1.1540 h1        1 MOL     -0.022300
    142 H61        10.1500    3.2530   -3.0400 hc        1 MOL      0.034450
    143 H62        11.6490    2.5040   -2.5610 hc        1 MOL      0.034450
    144 H63        10.3840    1.9880   -4.9940 hc        1 MOL      0.061505
    145 H64        11.4580    0.7590   -4.0720 hc        1 MOL      0.061505
    146 H65         8.4950    1.2350   -4.3300 h1        1 MOL      0.214227
    147 H66         9.4270   -0.4040   -4.4120 h1        1 MOL      0.214227
    148 N13         7.8030    2.6120   -1.2560 n         1 MOL     -0.202781
    149 C50         6.8110    3.3610   -0.4390 c3        1 MOL      0.297604
    150 C51         7.2100    4.8670   -0.2630 c         1 MOL      0.379078
    151 O21         7.2740    5.5210   -1.3040 o         1 MOL     -0.555685
    152 C52         5.3350    3.2160   -1.0010 c3        1 MOL     -0.124942
    153 C53         4.7970    1.7930   -1.2210 c3        1 MOL      0.034812
    154 C54         5.1900    1.0870   -2.5230 c         1 MOL      0.652521
    155 O22         4.5090    0.0930   -2.8780 o         1 MOL     -0.675285
    156 O23         6.1850    1.4420   -3.2500 o         1 MOL     -0.675285
    157 H67         7.5640    2.1730   -2.1340 hn        1 MOL      0.116104
    158 H68         6.6790    2.8850    0.5320 h1        1 MOL      0.018396
    159 H69         5.2760    3.7960   -1.9190 hc        1 MOL      0.015290
    160 H70         4.7110    3.6860   -0.2400 hc        1 MOL      0.015290
    161 H71         3.7170    1.8340   -1.1560 hc        1 MOL     -0.029749
    162 H72         5.1250    0.9920   -0.5410 hc        1 MOL     -0.029749
    163 N14         7.4740    5.5350    0.9060 n         1 MOL     -0.309896
    164 C55         7.3440    5.0550    2.2900 c3        1 MOL     -0.126976
    165 H73         6.3030    5.1270    2.6030 h1        1 MOL      0.068246
    166 H74         7.6690    4.0160    2.3470 h1        1 MOL      0.068246
    167 H75         7.9630    5.6660    2.9470 h1        1 MOL      0.068246
    168 H76         7.7010    6.5110    0.8680 hn        1 MOL      0.255909
    169 Ca1        -5.6590    0.3430    0.7450 Ca        1 MOL      1.676748
    170 O24        -3.1050   -0.3890    0.9270 oh        1 MOL     -0.804583
    171 H77        -2.4940   -0.4120    1.6530 ho        1 MOL      0.399854
    172 H78        -2.5580   -0.5640    0.1480 ho        1 MOL      0.399854
    173 O25        -3.9490    2.3280    1.3160 oh        1 MOL     -0.804583
    174 H79        -3.6400    2.1240    2.1960 ho        1 MOL      0.399854
    175 H80        -3.6290    3.2160    1.1430 ho        1 MOL      0.399854
    176 O26        -7.4520   -1.5990    1.4080 oh        1 MOL     -0.804583
    177 H81        -7.9170   -1.8750    2.2020 ho        1 MOL      0.399854
    178 H82        -7.5220   -2.3390    0.8140 ho        1 MOL      0.399854
    179 O27        -5.2610   -0.2890    3.2000 oh        1 MOL     -0.804583
    180 H83        -4.8600   -1.0820    3.5570 ho        1 MOL      0.399854
    181 H84        -6.1160   -0.2330    3.6230 ho        1 MOL      0.399854
@<TRIPOS>BOND
     1    1    2 1   
     2    1    4 1   
     3    1    5 1   
     4    1    6 1   
     5    2    3 2   
     6    2    7 1   
     7    7    8 1   
     8    7   15 1   
     9    8    9 1   
    10    8   11 1   
    11    8   16 1   
    12    9   10 2   
    13    9   19 1   
    14   11   12 1   
    15   11   17 1   
    16   11   18 1   
    17   12   13 1   
    18   12   14 1   
    19   19   20 1   
    20   19   24 1   
    21   20   21 1   
    22   20   23 1   
    23   20   25 1   
    24   21   22 2   
    25   21   29 1   
    26   23   26 1   
    27   23   27 1   
    28   23   28 1   
    29   29   30 1   
    30   29   37 1   
    31   30   31 1   
    32   30   33 1   
    33   30   38 1   
    34   31   32 2   
    35   31   41 1   
    36   33   34 1   
    37   33   39 1   
    38   33   40 1   
    39   34   35 1   
    40   34   36 1   
    41   41   42 1   
    42   41   45 1   
    43   42   43 1   
    44   42   46 1   
    45   42   47 1   
    46   43   44 2   
    47   43   48 1   
    48   48   49 1   
    49   48   56 1   
    50   49   50 1   
    51   49   52 1   
    52   49   57 1   
    53   50   51 2   
    54   50   62 1   
    55   52   53 1   
    56   52   58 1   
    57   52   59 1   
    58   53   54 1   
    59   53   55 2   
    60   54   60 1   
    61   54   61 1   
    62   62   63 1   
    63   62   66 1   
    64   63   64 1   
    65   63   67 1   
    66   63   68 1   
    67   64   65 2   
    68   64   69 1   
    69   69   70 1   
    70   69   76 1   
    71   70   71 1   
    72   70   73 1   
    73   70   77 1   
    74   71   72 2   
    75   71   83 1   
    76   73   74 1   
    77   73   75 1   
    78   73   78 1   
    79   74   80 1   
    80   74   81 1   
    81   74   82 1   
    82   75   79 1   
    83   83   84 1   
    84   83   91 1   
    85   84   85 1   
    86   84   87 1   
    87   84   92 1   
    88   85   86 2   
    89   85  102 1   
    90   87   88 1   
    91   87   89 1   
    92   87   93 1   
    93   88   90 1   
    94   88   94 1   
    95   88   95 1   
    96   89   96 1   
    97   89   97 1   
    98   89   98 1   
    99   90   99 1   
   100   90  100 1   
   101   90  101 1   
   102  102  103 1   
   103  102  110 1   
   104  103  104 1   
   105  103  106 1   
   106  103  111 1   
   107  104  105 2   
   108  104  114 1   
   109  106  107 1   
   110  106  112 1   
   111  106  113 1   
   112  107  108 1   
   113  107  109 1   
   114  114  115 1   
   115  114  125 1   
   116  115  116 1   
   117  115  118 1   
   118  115  126 1   
   119  116  117 2   
   120  116  134 1   
   121  118  119 1   
   122  118  127 1   
   123  118  128 1   
   124  119  120 ar  
   125  119  121 ar  
   126  120  122 ar  
   127  120  129 1   
   128  121  123 ar  
   129  121  130 1   
   130  122  124 ar  
   131  122  131 1   
   132  123  124 ar  
   133  123  132 1   
   134  124  133 1   
   135  134  135 1   
   136  134  140 1   
   137  135  136 1   
   138  135  138 1   
   139  135  141 1   
   140  136  137 2   
   141  136  148 1   
   142  138  139 1   
   143  138  142 1   
   144  138  143 1   
   145  139  140 1   
   146  139  144 1   
   147  139  145 1   
   148  140  146 1   
   149  140  147 1   
   150  148  149 1   
   151  148  157 1   
   152  149  150 1   
   153  149  152 1   
   154  149  158 1   
   155  150  151 2   
   156  150  163 1   
   157  152  153 1   
   158  152  159 1   
   159  152  160 1   
   160  153  154 1   
   161  153  161 1   
   162  153  162 1   
   163  154  155 1   
   164  154  156 1   
   165  163  164 1   
   166  163  168 1   
   167  164  165 1   
   168  164  166 1   
   169  164  167 1   
   170  170  171 1   
   171  170  172 1   
   172  173  174 1   
   173  173  175 1   
   174  176  177 1   
   175  176  178 1   
   176  179  180 1   
   177  179  181 1   
@<TRIPOS>SUBSTRUCTURE
     1 MOL         1 TEMP              0 ****  ****    0 ROOT
