@<TRIPOS>MOLECULE
MOL
  192   187     1     0     0
SMALL
resp


@<TRIPOS>ATOM
      1 C1        -11.3030   -5.2460   -3.1620 c3        1 MOL     -0.549775
      2 C2        -11.1350   -3.9030   -2.3730 c         1 MOL      0.758099
      3 O1        -11.3200   -2.8040   -2.8940 o         1 MOL     -0.636962
      4 H1        -10.9960   -6.0780   -2.5290 hc        1 MOL      0.147286
      5 H2        -12.3480   -5.3720   -3.4460 hc        1 MOL      0.147286
      6 H3        -10.6810   -5.2220   -4.0570 hc        1 MOL      0.147286
      7 N1        -10.6490   -3.9880   -1.1600 n         1 MOL     -0.240138
      8 C3        -10.5290   -2.8080   -0.2840 c3        1 MOL     -0.511233
      9 C4         -9.2630   -2.0330   -0.4040 c         1 MOL      0.695436
     10 O2         -8.2070   -2.7090   -0.3060 o         1 MOL     -0.722364
     11 C5        -10.8070   -3.1400    1.2350 c3        1 MOL      0.180645
     12 C6        -10.1720   -4.4010    1.8340 c         1 MOL      0.704354
     13 O3         -9.1150   -4.8680    1.3510 o         1 MOL     -0.701530
     14 O4        -10.6490   -4.8190    2.9840 o         1 MOL     -0.701530
     15 H4        -10.5020   -4.9360   -0.8380 hn        1 MOL      0.123371
     16 H5        -11.4050   -2.2120   -0.5350 h1        1 MOL      0.173364
     17 H6        -11.8780   -3.3050    1.3730 hc        1 MOL     -0.005569
     18 H7        -10.5190   -2.2750    1.8240 hc        1 MOL     -0.005569
     19 N2         -9.2920   -0.6850   -0.5160 n         1 MOL     -0.295421
     20 C7         -8.1330    0.2480   -0.7020 c3        1 MOL     -0.173036
     21 C8         -7.3700    0.5780    0.6400 c         1 MOL      0.750755
     22 O5         -7.7860    1.1920    1.6200 o         1 MOL     -0.568427
     23 C9         -8.7950    1.4520   -1.3690 c3        1 MOL     -0.363757
     24 C10        -7.7350    2.4620   -1.6950 c3        1 MOL      0.063210
     25 C11        -8.1750    3.7860   -2.2260 c3        1 MOL      0.186801
     26 C12        -7.0440    4.6170   -2.8250 c3        1 MOL     -0.128407
     27 N3         -6.6630    5.5960   -1.7410 n4        1 MOL     -0.250346
     28 H8        -10.1930   -0.2730   -0.3530 hn        1 MOL      0.264796
     29 H9         -7.4710   -0.2310   -1.4160 h1        1 MOL      0.189177
     30 H10        -9.6030    1.9670   -0.8470 hc        1 MOL      0.138194
     31 H11        -9.2480    1.1980   -2.3250 hc        1 MOL      0.138194
     32 H12        -7.1740    1.9700   -2.4920 hc        1 MOL     -0.020540
     33 H13        -7.0300    2.5940   -0.8780 hc        1 MOL     -0.020540
     34 H14        -8.7520    4.3860   -1.5210 hc        1 MOL     -0.006027
     35 H15        -8.9650    3.5620   -2.9310 hc        1 MOL     -0.006027
     36 H16        -7.4180    5.1790   -3.6870 hx        1 MOL      0.114054
     37 H17        -6.2080    3.9990   -3.1390 hx        1 MOL      0.114054
     38 H18        -5.7290    5.9470   -1.8510 hn        1 MOL      0.289762
     39 H19        -7.1180    6.4890   -1.7690 hn        1 MOL      0.289762
     40 H20        -6.7230    5.2860   -0.7820 hn        1 MOL      0.289762
     41 N4         -6.1830    0.0620    0.6340 n         1 MOL     -0.430249
     42 C13        -5.1920    0.1100    1.7210 c3        1 MOL      0.147170
     43 C14        -3.7390    0.0430    1.1500 c         1 MOL      0.209824
     44 O6         -3.5350   -0.7110    0.2060 o         1 MOL     -0.463309
     45 C15        -5.3940   -1.0540    2.7730 c3        1 MOL     -0.181412
     46 C16        -5.7660   -2.4130    2.2030 c         1 MOL      0.752497
     47 O7         -5.0050   -3.0440    1.4580 o         1 MOL     -0.721021
     48 O8         -6.8930   -2.9410    2.4020 o         1 MOL     -0.721021
     49 H21        -5.9370   -0.4530   -0.2040 hn        1 MOL      0.182819
     50 H22        -5.2220    1.0910    2.1980 h1        1 MOL      0.063706
     51 H23        -6.1550   -0.6950    3.4590 hc        1 MOL      0.064583
     52 H24        -4.4260   -1.1580    3.2610 hc        1 MOL      0.064583
     53 N5         -2.6440    0.6130    1.6520 n         1 MOL      0.025951
     54 C17        -2.5560    1.5180    2.8250 c3        1 MOL     -0.442337
     55 C18        -2.8880    3.0010    2.4880 c         1 MOL      0.774092
     56 O9         -3.5790    3.1690    1.4620 o         1 MOL     -0.611223
     57 H25        -1.7240    0.4560    1.2550 hn        1 MOL      0.179224
     58 H26        -1.5990    1.5460    3.3390 h1        1 MOL      0.138048
     59 H27        -3.3510    1.2500    3.5200 h1        1 MOL      0.138048
     60 N6         -2.4330    3.9650    3.2160 n         1 MOL     -0.555376
     61 C19        -2.4700    5.3480    2.7820 c3        1 MOL      0.086593
     62 C20        -1.3940    5.5540    1.7020 c         1 MOL      0.547403
     63 O10        -0.4060    4.9120    1.8390 o         1 MOL     -0.485056
     64 C21        -2.3920    6.3210    3.9450 c3        1 MOL     -0.206583
     65 C22        -2.1600    7.7370    3.4020 c         1 MOL      0.714750
     66 O11        -3.0130    8.2700    2.6720 o         1 MOL     -0.690917
     67 O12        -1.2130    8.4180    3.9340 o         1 MOL     -0.690917
     68 H28        -1.6800    3.7110    3.8510 hn        1 MOL      0.319924
     69 H29        -3.4340    5.5410    2.3160 h1        1 MOL      0.028031
     70 H30        -1.5360    6.0880    4.5880 hc        1 MOL      0.063129
     71 H31        -3.3080    6.3210    4.5260 hc        1 MOL      0.063129
     72 N7         -1.5890    6.1850    0.5580 n         1 MOL     -0.472098
     73 C23        -0.7900    6.3010   -0.6770 c3        1 MOL      0.108109
     74 C24        -0.9080    5.1140   -1.5800 c         1 MOL      0.360121
     75 O13        -0.6750    5.2100   -2.8120 o         1 MOL     -0.563984
     76 H32        -2.5690    6.4090    0.4330 hn        1 MOL      0.215058
     77 H33         0.2630    6.2510   -0.3930 h1        1 MOL      0.087850
     78 H34        -0.9200    7.2230   -1.2320 h1        1 MOL      0.087850
     79 N8         -1.1890    3.9380   -0.9870 n         1 MOL     -0.005265
     80 C25        -1.1120    2.5610   -1.5860 c3        1 MOL      0.035084
     81 C26        -0.4170    1.5540   -0.6510 c         1 MOL      0.439907
     82 O14        -0.0280    1.7930    0.4870 o         1 MOL     -0.458824
     83 C27        -2.5600    2.0440   -1.9460 c3        1 MOL      0.252074
     84 C28        -3.4460    3.0560   -2.5810 c3        1 MOL     -0.381019
     85 O15        -2.5190    0.8610   -2.7390 oh        1 MOL     -0.618360
     86 H35        -1.2390    3.9320    0.0230 hn        1 MOL     -0.037008
     87 H36        -0.5720    2.6500   -2.5300 h1        1 MOL      0.082446
     88 H37        -3.0250    1.6750   -1.0330 h1        1 MOL      0.045572
     89 H38        -3.3940    0.7400   -3.1170 ho        1 MOL      0.406746
     90 H39        -4.3640    2.5160   -2.8030 hc        1 MOL      0.091809
     91 H40        -3.7550    3.9070   -1.9720 hc        1 MOL      0.091809
     92 H41        -3.0480    3.3400   -3.5510 hc        1 MOL      0.091809
     93 N9         -0.0790    0.4200   -1.1690 n         1 MOL     -0.170905
     94 C29         0.6430   -0.6370   -0.5330 c3        1 MOL     -0.261651
     95 C30         2.1850   -0.4430   -0.1780 c         1 MOL      0.453193
     96 O16         2.7660   -1.2960    0.5540 o         1 MOL     -0.527912
     97 C31         0.4240   -1.9240   -1.3010 c3        1 MOL      0.114357
     98 C32         0.9000   -1.8640   -2.7660 c3        1 MOL      0.064463
     99 C33        -1.0970   -2.3440   -1.1570 c3        1 MOL     -0.121521
    100 C34         1.0670   -3.2360   -3.3320 c3        1 MOL     -0.351326
    101 H42        -0.2410    0.3310   -2.1690 hn        1 MOL      0.201926
    102 H43         0.1880   -0.7930    0.4390 h1        1 MOL      0.153216
    103 H44         0.9620   -2.7120   -0.7770 hc        1 MOL      0.035097
    104 H45         1.8920   -1.4130   -2.7950 hc        1 MOL      0.022133
    105 H46         0.2470   -1.2690   -3.3970 hc        1 MOL      0.022133
    106 H47        -1.4380   -2.1920   -0.1430 hc        1 MOL      0.025475
    107 H48        -1.6870   -1.6090   -1.7160 hc        1 MOL      0.025475
    108 H49        -1.2130   -3.3630   -1.5250 hc        1 MOL      0.025475
    109 H50         1.4580   -3.1320   -4.3470 hc        1 MOL      0.090216
    110 H51         1.8300   -3.7360   -2.7390 hc        1 MOL      0.090216
    111 H52         0.2250   -3.9270   -3.2740 hc        1 MOL      0.090216
    112 N10         2.7380    0.6480   -0.6030 n         1 MOL     -0.237444
    113 C35         3.9770    1.1810   -0.1350 c3        1 MOL     -0.063023
    114 C36         4.7920    1.6810   -1.3360 c         1 MOL      0.704399
    115 O17         4.2210    1.9730   -2.4210 o         1 MOL     -0.545609
    116 C37         3.6140    2.1940    0.9640 c3        1 MOL      0.309330
    117 C38         4.8620    3.0270    1.1940 c3        1 MOL     -0.286093
    118 O18         2.6390    3.1110    0.3980 oh        1 MOL     -0.528739
    119 H53         2.3240    1.1000   -1.4040 hn        1 MOL      0.161298
    120 H54         4.5790    0.3740    0.2750 h1        1 MOL      0.054617
    121 H55         3.3010    1.6520    1.8550 h1        1 MOL      0.059323
    122 H56         1.8120    2.6400    0.5210 ho        1 MOL      0.298878
    123 H57         5.1550    3.5950    0.3110 hc        1 MOL      0.072912
    124 H58         4.8100    3.6200    2.1050 hc        1 MOL      0.072912
    125 H59         5.6840    2.3770    1.4620 hc        1 MOL      0.072912
    126 N11         6.0850    1.6960   -1.2510 n         1 MOL     -0.678136
    127 C39         7.1310    1.9610   -2.2660 c3        1 MOL      0.144801
    128 C40         8.1560    0.8280   -2.4100 c         1 MOL      0.635787
    129 O19         8.4760    0.4690   -3.5290 o         1 MOL     -0.556556
    130 C41         7.8690    3.1990   -1.9290 c3        1 MOL      0.246890
    131 C42         8.9430    3.6290   -2.9680 c3        1 MOL     -0.287755
    132 O20         8.5140    3.2010   -0.6410 oh        1 MOL     -0.647239
    133 H60         6.4810    1.5130   -0.3400 hn        1 MOL      0.328590
    134 H61         6.7270    2.0680   -3.2760 h1        1 MOL      0.074140
    135 H62         7.1260    3.9950   -1.9650 h1        1 MOL      0.058187
    136 H63         8.7650    4.1270   -0.5700 ho        1 MOL      0.405724
    137 H64         9.9230    3.2490   -2.6900 hc        1 MOL      0.074142
    138 H65         8.7760    3.1100   -3.9170 hc        1 MOL      0.074142
    139 H66         8.8820    4.7120   -3.0700 hc        1 MOL      0.074142
    140 N12         8.6170    0.2100   -1.3040 n         1 MOL     -0.478258
    141 C43         9.7120   -0.8130   -1.2230 c3        1 MOL      0.082650
    142 C44         9.5510   -1.7280   -0.0740 c         1 MOL      0.549976
    143 O21         8.9390   -1.3460    0.9060 o         1 MOL     -0.487560
    144 C45        11.0990   -0.1040   -1.1810 c3        1 MOL     -0.262900
    145 C46        11.3530    0.9330   -0.0820 c3        1 MOL      0.090343
    146 C47        12.8060    1.4180    0.0610 c3        1 MOL     -0.019421
    147 C48        12.8360    2.5360    1.1210 c3        1 MOL      0.032569
    148 N13        14.2640    3.1490    1.1730 n4        1 MOL     -0.305021
    149 H67         8.2520    0.6150   -0.4530 hn        1 MOL      0.249188
    150 H68         9.6720   -1.4140   -2.1300 h1        1 MOL      0.083420
    151 H69        11.2020    0.4030   -2.1410 hc        1 MOL      0.092355
    152 H70        11.9240   -0.8050   -1.1920 hc        1 MOL      0.092355
    153 H71        10.9230    0.5560    0.8430 hc        1 MOL      0.009737
    154 H72        10.8560    1.8960   -0.2090 hc        1 MOL      0.009737
    155 H73        13.1690    1.7830   -0.8940 hc        1 MOL      0.022821
    156 H74        13.4640    0.5790    0.2910 hc        1 MOL      0.022821
    157 H75        12.6220    2.1630    2.1220 hx        1 MOL      0.084113
    158 H76        12.0740    3.2540    0.8180 hx        1 MOL      0.084113
    159 H77        14.7830    2.4540    1.7030 hn        1 MOL      0.258927
    160 H78        14.6760    3.2430    0.2490 hn        1 MOL      0.258927
    161 H79        14.2540    4.0620    1.5880 hn        1 MOL      0.258927
    162 N14        10.0130   -2.9460   -0.1720 n         1 MOL     -0.525189
    163 C49        10.0900   -3.8620    0.9760 c3        1 MOL      0.211538
    164 C50         8.7790   -4.1110    1.8040 c         1 MOL      0.238475
    165 O22         8.8360   -4.0490    3.0160 o         1 MOL     -0.495213
    166 C51        10.7500   -5.1650    0.4220 c3        1 MOL     -0.129947
    167 C52        11.3330   -6.0300    1.5720 c3        1 MOL     -0.279794
    168 C53        12.4770   -7.0260    1.2270 c         1 MOL      0.738881
    169 O23        13.2200   -7.5610    2.0820 o         1 MOL     -0.664925
    170 O24        12.6010   -7.2710    0.0110 o         1 MOL     -0.664925
    171 H80        10.6370   -3.1370   -0.9420 hn        1 MOL      0.279655
    172 H81        10.8160   -3.4900    1.6860 h1        1 MOL      0.070797
    173 H82        11.5690   -4.8010   -0.1940 hc        1 MOL      0.071190
    174 H83        10.1750   -5.7800   -0.2730 hc        1 MOL      0.071190
    175 H84        10.6530   -6.8040    1.9360 hc        1 MOL      0.077869
    176 H85        11.6810   -5.3860    2.3770 hc        1 MOL      0.077869
    177 N15         7.6570   -4.4480    1.2090 n         1 MOL     -0.200773
    178 C54         7.4140   -4.6230   -0.2270 c3        1 MOL     -0.082569
    179 H86         7.0660   -3.6820   -0.6530 h1        1 MOL      0.061027
    180 H87         8.3390   -4.9240   -0.7190 h1        1 MOL      0.061027
    181 H88         6.6550   -5.3910   -0.3770 h1        1 MOL      0.061027
    182 H89         6.8930   -4.6280    1.8410 hn        1 MOL      0.266350
    183 Ca1        -6.6880   -4.6340    0.3280 Ca        1 MOL      1.763287
    184 O25        -6.1750   -4.3050   -2.1680 oh        1 MOL     -0.844319
    185 H90        -5.8320   -3.4120   -2.1570 ho        1 MOL      0.416877
    186 H91        -6.5260   -4.4230   -3.0480 ho        1 MOL      0.416877
    187 O26        -6.0430   -6.4180    2.4290 oh        1 MOL     -0.844319
    188 H92        -5.7250   -6.4940    3.3320 ho        1 MOL      0.416877
    189 H93        -5.7110   -7.2110    2.0040 ho        1 MOL      0.416877
    190 O27        -4.2430   -5.6060   -0.2900 oh        1 MOL     -0.844319
    191 H94        -4.2300   -6.5580   -0.2440 ho        1 MOL      0.416877
    192 H95        -3.3320   -5.3650   -0.4840 ho        1 MOL      0.416877
@<TRIPOS>BOND
     1    1    2 1   
     2    1    4 1   
     3    1    5 1   
     4    1    6 1   
     5    2    3 2   
     6    2    7 1   
     7    7    8 1   
     8    7   15 1   
     9    8    9 1   
    10    8   11 1   
    11    8   16 1   
    12    9   10 2   
    13    9   19 1   
    14   11   12 1   
    15   11   17 1   
    16   11   18 1   
    17   12   13 1   
    18   12   14 1   
    19   19   20 1   
    20   19   28 1   
    21   20   21 1   
    22   20   23 1   
    23   20   29 1   
    24   21   22 2   
    25   21   41 1   
    26   23   24 1   
    27   23   30 1   
    28   23   31 1   
    29   24   25 1   
    30   24   32 1   
    31   24   33 1   
    32   25   26 1   
    33   25   34 1   
    34   25   35 1   
    35   26   27 1   
    36   26   36 1   
    37   26   37 1   
    38   27   38 1   
    39   27   39 1   
    40   27   40 1   
    41   41   42 1   
    42   41   49 1   
    43   42   43 1   
    44   42   45 1   
    45   42   50 1   
    46   43   44 2   
    47   43   53 1   
    48   45   46 1   
    49   45   51 1   
    50   45   52 1   
    51   46   47 1   
    52   46   48 1   
    53   53   54 1   
    54   53   57 1   
    55   54   55 1   
    56   54   58 1   
    57   54   59 1   
    58   55   56 2   
    59   55   60 1   
    60   60   61 1   
    61   60   68 1   
    62   61   62 1   
    63   61   64 1   
    64   61   69 1   
    65   62   63 2   
    66   62   72 1   
    67   64   65 1   
    68   64   70 1   
    69   64   71 1   
    70   65   66 1   
    71   65   67 1   
    72   72   73 1   
    73   72   76 1   
    74   73   74 1   
    75   73   77 1   
    76   73   78 1   
    77   74   75 2   
    78   74   79 1   
    79   79   80 1   
    80   79   86 1   
    81   80   81 1   
    82   80   83 1   
    83   80   87 1   
    84   81   82 2   
    85   81   93 1   
    86   83   84 1   
    87   83   85 1   
    88   83   88 1   
    89   84   90 1   
    90   84   91 1   
    91   84   92 1   
    92   85   89 1   
    93   93   94 1   
    94   93  101 1   
    95   94   95 1   
    96   94   97 1   
    97   94  102 1   
    98   95   96 2   
    99   95  112 1   
   100   97   98 1   
   101   97   99 1   
   102   97  103 1   
   103   98  100 1   
   104   98  104 1   
   105   98  105 1   
   106   99  106 1   
   107   99  107 1   
   108   99  108 1   
   109  100  109 1   
   110  100  110 1   
   111  100  111 1   
   112  112  113 1   
   113  112  119 1   
   114  113  114 1   
   115  113  116 1   
   116  113  120 1   
   117  114  115 2   
   118  114  126 1   
   119  116  117 1   
   120  116  118 1   
   121  116  121 1   
   122  117  123 1   
   123  117  124 1   
   124  117  125 1   
   125  118  122 1   
   126  126  127 1   
   127  126  133 1   
   128  127  128 1   
   129  127  130 1   
   130  127  134 1   
   131  128  129 2   
   132  128  140 1   
   133  130  131 1   
   134  130  132 1   
   135  130  135 1   
   136  131  137 1   
   137  131  138 1   
   138  131  139 1   
   139  132  136 1   
   140  140  141 1   
   141  140  149 1   
   142  141  142 1   
   143  141  144 1   
   144  141  150 1   
   145  142  143 2   
   146  142  162 1   
   147  144  145 1   
   148  144  151 1   
   149  144  152 1   
   150  145  146 1   
   151  145  153 1   
   152  145  154 1   
   153  146  147 1   
   154  146  155 1   
   155  146  156 1   
   156  147  148 1   
   157  147  157 1   
   158  147  158 1   
   159  148  159 1   
   160  148  160 1   
   161  148  161 1   
   162  162  163 1   
   163  162  171 1   
   164  163  164 1   
   165  163  166 1   
   166  163  172 1   
   167  164  165 2   
   168  164  177 1   
   169  166  167 1   
   170  166  173 1   
   171  166  174 1   
   172  167  168 1   
   173  167  175 1   
   174  167  176 1   
   175  168  169 1   
   176  168  170 1   
   177  177  178 1   
   178  177  182 1   
   179  178  179 1   
   180  178  180 1   
   181  178  181 1   
   182  184  185 1   
   183  184  186 1   
   184  187  188 1   
   185  187  189 1   
   186  190  191 1   
   187  190  192 1   
@<TRIPOS>SUBSTRUCTURE
     1 MOL         1 TEMP              0 ****  ****    0 ROOT
