@<TRIPOS>MOLECULE
MOL
  184   179     1     0     0
SMALL
resp


@<TRIPOS>ATOM
      1 C1         -9.0540   -7.4280    2.1420 c3        1 MOL     -0.388535
      2 C2         -8.2250   -6.1670    2.4450 c         1 MOL      0.562384
      3 O1         -7.5180   -6.0580    3.4440 o         1 MOL     -0.586776
      4 H1         -9.7950   -7.2000    1.3760 hc        1 MOL      0.104211
      5 H2         -8.3950   -8.2210    1.7860 hc        1 MOL      0.104211
      6 H3         -9.5610   -7.7570    3.0500 hc        1 MOL      0.104211
      7 N1         -8.1430   -5.2250    1.5630 n         1 MOL     -0.273909
      8 C3         -8.8590   -5.0280    0.2940 c3        1 MOL      0.178386
      9 C4         -9.0240   -3.5530    0.0530 c         1 MOL      0.258068
     10 O2         -8.1670   -2.7630    0.4020 o         1 MOL     -0.385640
     11 C5         -8.1980   -5.7330   -0.9260 c3        1 MOL      0.060221
     12 C6         -6.6890   -5.5540   -1.0730 c         1 MOL      0.551990
     13 O3         -6.1040   -6.2460   -1.9640 o         1 MOL     -0.664676
     14 O4         -6.0720   -4.7180   -0.3630 o         1 MOL     -0.664676
     15 H4         -7.5980   -4.4370    1.8750 hn        1 MOL      0.182747
     16 H5         -9.8780   -5.4190    0.3610 h1        1 MOL     -0.010921
     17 H6         -8.7750   -5.4320   -1.8010 hc        1 MOL     -0.029025
     18 H7         -8.5380   -6.7680   -0.7970 hc        1 MOL     -0.029025
     19 N2        -10.2130   -3.1840   -0.4380 n         1 MOL     -0.475692
     20 C7        -10.4470   -1.7950   -0.9910 c3        1 MOL      0.211098
     21 C8        -10.5940   -0.6460   -0.0020 c         1 MOL      0.700293
     22 O5        -11.4910   -0.6730    0.8310 o         1 MOL     -0.568284
     23 C9        -11.5750   -1.8180   -1.9680 c3        1 MOL     -0.420430
     24 H8        -10.8740   -3.9220   -0.6400 hn        1 MOL      0.313028
     25 H9         -9.5940   -1.5340   -1.6050 h1        1 MOL      0.010772
     26 H10       -11.3060   -2.4160   -2.8370 hc        1 MOL      0.112633
     27 H11       -12.5040   -2.0740   -1.4520 hc        1 MOL      0.112633
     28 H12       -11.7380   -0.8040   -2.3130 hc        1 MOL      0.112633
     29 N3         -9.7840    0.4750   -0.0610 n         1 MOL     -0.634722
     30 C10        -9.4800    1.3750    1.1180 c3        1 MOL      0.157794
     31 C11        -9.0800    2.7500    0.5070 c         1 MOL      0.486941
     32 O6         -8.7000    2.8360   -0.6360 o         1 MOL     -0.470357
     33 C12        -8.3240    0.9030    2.0060 c3        1 MOL     -0.025734
     34 C13        -7.1700    0.2530    1.3170 c         1 MOL      0.658946
     35 O7         -7.0640    0.1780    0.0860 o         1 MOL     -0.762254
     36 O8         -6.3840   -0.5240    1.9730 o         1 MOL     -0.762254
     37 H13        -9.0500    0.4680   -0.7540 hn        1 MOL      0.270069
     38 H14       -10.3790    1.4200    1.7390 h1        1 MOL      0.029976
     39 H15        -8.7180    0.2370    2.7750 hc        1 MOL      0.022186
     40 H16        -7.9740    1.7410    2.6150 hc        1 MOL      0.022186
     41 N4         -9.1260    3.7820    1.3650 n         1 MOL     -0.391794
     42 C14        -8.8330    5.2140    1.1320 c3        1 MOL     -0.250328
     43 C15        -7.4050    5.6270    0.7970 c         1 MOL      0.625961
     44 O9         -7.1340    6.8050    0.5600 o         1 MOL     -0.589899
     45 H17        -9.3530    3.4930    2.3070 hn        1 MOL      0.262597
     46 H18        -9.0210    5.7990    2.0330 h1        1 MOL      0.143945
     47 H19        -9.4330    5.6220    0.3170 h1        1 MOL      0.143945
     48 N5         -6.4550    4.7420    1.0280 n         1 MOL     -0.390336
     49 C16        -5.0300    5.0400    0.9230 c3        1 MOL      0.035097
     50 C17        -4.3350    3.9840   -0.0240 c         1 MOL      0.454486
     51 O10        -4.7370    2.8170    0.0870 o         1 MOL     -0.440874
     52 C18        -4.2750    5.1000    2.3080 c3        1 MOL     -0.270779
     53 C19        -4.8970    6.0530    3.3540 c         1 MOL      0.685882
     54 N6         -4.7600    7.3280    3.2370 n         1 MOL     -0.717518
     55 O11        -5.4680    5.6870    4.3690 o         1 MOL     -0.574115
     56 H20        -6.6360    3.7520    1.1470 hn        1 MOL      0.291983
     57 H21        -4.9260    6.0600    0.5660 h1        1 MOL      0.088635
     58 H22        -3.2180    5.3490    2.1620 hc        1 MOL      0.086696
     59 H23        -4.2780    4.0720    2.6700 hc        1 MOL      0.086696
     60 H24        -4.3210    7.7540    2.4270 hn        1 MOL      0.346236
     61 H25        -5.0800    7.8700    4.0370 hn        1 MOL      0.346236
     62 N7         -3.3280    4.3060   -0.8980 n         1 MOL     -0.397741
     63 C20        -2.6350    3.3480   -1.7950 c3        1 MOL      0.089579
     64 C21        -1.7330    3.8980   -2.9170 c         1 MOL      0.621664
     65 O12        -1.7750    5.0560   -3.2280 o         1 MOL     -0.565169
     66 H26        -3.1770    5.2740   -1.1340 hn        1 MOL      0.256950
     67 H27        -3.3890    2.7650   -2.3280 h1        1 MOL      0.007576
     68 H28        -2.0490    2.5960   -1.2630 h1        1 MOL      0.007576
     69 N8         -0.8250    3.1740   -3.6100 n         1 MOL     -0.508419
     70 C22        -0.5370    1.7280   -3.4230 c3        1 MOL     -0.186027
     71 C23         0.9330    1.3550   -3.1040 c         1 MOL      0.815189
     72 O13         1.8320    1.8320   -3.8250 o         1 MOL     -0.612727
     73 C24        -1.0080    0.9150   -4.6810 c3        1 MOL      0.395721
     74 C25        -0.6260   -0.5770   -4.5120 c3        1 MOL     -0.163356
     75 O14        -2.3810    1.0050   -4.9490 oh        1 MOL     -0.657683
     76 H29        -0.3370    3.7210   -4.3110 hn        1 MOL      0.325939
     77 H30        -1.1480    1.2810   -2.6400 h1        1 MOL      0.091876
     78 H31        -0.4280    1.2030   -5.5590 h1        1 MOL     -0.012725
     79 H32        -2.4540    1.7490   -5.5480 ho        1 MOL      0.392078
     80 H33        -0.8620   -0.8620   -3.4850 hc        1 MOL      0.042492
     81 H34        -1.2210   -1.1740   -5.2000 hc        1 MOL      0.042492
     82 H35         0.4470   -0.6810   -4.6420 hc        1 MOL      0.042492
     83 N9          1.1680    0.5890   -2.0690 n         1 MOL     -0.573391
     84 C26         2.3960    0.6730   -1.2050 c3        1 MOL      0.135565
     85 C27         2.9600   -0.7210   -0.8560 c         1 MOL      0.443965
     86 O15         2.2240   -1.5620   -0.3400 o         1 MOL     -0.579229
     87 C28         2.0060    1.3460    0.0870 c3        1 MOL      0.216032
     88 C29         1.3460    2.7390   -0.0570 c3        1 MOL     -0.309048
     89 C30         3.2170    1.3940    0.9590 c3        1 MOL     -0.122025
     90 C31         2.2710    3.7570   -0.6130 c3        1 MOL     -0.025795
     91 H36         0.3670    0.1760   -1.6290 hn        1 MOL      0.261775
     92 H37         3.1240    1.3230   -1.6940 h1        1 MOL      0.064062
     93 H38         1.2130    0.7850    0.5800 hc        1 MOL     -0.064420
     94 H39         1.0760    3.0240    0.9520 hc        1 MOL      0.080472
     95 H40         0.4880    2.6660   -0.7230 hc        1 MOL      0.080472
     96 H41         3.5170    0.4210    1.3620 hc        1 MOL      0.063538
     97 H42         3.9740    1.8900    0.3660 hc        1 MOL      0.063538
     98 H43         2.9410    1.9740    1.8420 hc        1 MOL      0.063538
     99 H44         2.7700    3.3830   -1.5100 hc        1 MOL      0.012266
    100 H45         1.7690    4.6590   -0.9470 hc        1 MOL      0.012266
    101 H46         3.0820    3.9740    0.0870 hc        1 MOL      0.012266
    102 N10         4.2030   -1.0450   -0.9670 n         1 MOL     -0.323381
    103 C32         5.3110   -0.1800   -1.4820 c3        1 MOL      0.071357
    104 C33         6.6200   -0.5500   -0.8850 c         1 MOL      0.307640
    105 O16         6.8070   -1.6540   -0.4250 o         1 MOL     -0.472135
    106 C34         5.3000   -0.2910   -3.0730 c3        1 MOL     -0.182384
    107 C35         5.7200   -1.7190   -3.5240 c         1 MOL      0.813157
    108 O17         6.8390   -1.8610   -4.0910 o         1 MOL     -0.734662
    109 O18         4.8350   -2.5890   -3.5940 o         1 MOL     -0.734662
    110 H47         4.4200   -2.0220   -0.8350 hn        1 MOL      0.301930
    111 H48         5.0830    0.8560   -1.2390 h1        1 MOL      0.071663
    112 H49         6.0260    0.4430   -3.4220 hc        1 MOL      0.014430
    113 H50         4.2800   -0.1070   -3.3970 hc        1 MOL      0.014430
    114 N11         7.5700    0.3540   -0.9830 n         1 MOL     -0.579567
    115 C36         8.9800    0.0970   -0.7890 c3        1 MOL      0.598187
    116 C37         9.6840    1.1380    0.0930 c         1 MOL      0.032846
    117 O19         9.2150    2.2880    0.1130 o         1 MOL     -0.463237
    118 C38         9.5410    0.1260   -2.2440 c3        1 MOL     -0.220141
    119 C39        10.9990   -0.3090   -2.3690 ca        1 MOL      0.137743
    120 C40        11.9680    0.7370   -2.3800 ca        1 MOL     -0.184257
    121 C41        11.4490   -1.6470   -2.4070 ca        1 MOL     -0.184257
    122 C42        13.3300    0.3690   -2.4820 ca        1 MOL     -0.135558
    123 C43        12.7810   -1.9210   -2.5390 ca        1 MOL     -0.135558
    124 C44        13.7710   -0.9430   -2.5660 ca        1 MOL     -0.092516
    125 H51         7.4070    1.2850   -1.3310 hn        1 MOL      0.338260
    126 H52         9.1780   -0.9300   -0.4520 h1        1 MOL      0.006115
    127 H53         9.3710    1.0800   -2.7450 hc        1 MOL      0.059401
    128 H54         8.9570   -0.6050   -2.8110 hc        1 MOL      0.059401
    129 H55        11.7680    1.7850   -2.2340 ha        1 MOL      0.137391
    130 H56        10.7530   -2.4660   -2.3430 ha        1 MOL      0.137391
    131 H57        14.0460    1.1610   -2.3170 ha        1 MOL      0.098860
    132 H58        13.0880   -2.9580   -2.6300 ha        1 MOL      0.098860
    133 H59        14.8290   -1.1640   -2.5640 ha        1 MOL      0.084553
    134 N12        10.7520    0.7550    0.8430 n         1 MOL      0.144160
    135 C45        11.2270   -0.6560    1.0960 c3        1 MOL     -0.003425
    136 C46        10.2220   -1.5980    1.8190 c         1 MOL      0.397317
    137 O20        10.2200   -2.8340    1.6650 o         1 MOL     -0.549960
    138 C47        12.4670   -0.5190    1.9780 c3        1 MOL     -0.012955
    139 C48        12.8810    0.9210    1.7280 c3        1 MOL     -0.112965
    140 C49        11.5620    1.6870    1.6380 c3        1 MOL     -0.113257
    141 H60        11.4790   -1.1720    0.1740 h1        1 MOL      0.088038
    142 H61        12.1380   -0.7430    2.9950 hc        1 MOL      0.034541
    143 H62        13.1930   -1.2140    1.5460 hc        1 MOL      0.034541
    144 H63        13.4810    1.2140    2.5920 hc        1 MOL      0.018210
    145 H64        13.3380    1.0630    0.7530 hc        1 MOL      0.018210
    146 H65        11.2280    1.8440    2.6610 h1        1 MOL      0.085331
    147 H66        11.6010    2.6630    1.1600 h1        1 MOL      0.085331
    148 N13         9.3090   -0.9170    2.5300 n         1 MOL     -0.357119
    149 C50         8.1370   -1.4610    3.2440 c3        1 MOL      0.213362
    150 C51         8.6740   -2.1810    4.5070 c         1 MOL      0.385346
    151 O21         9.0870   -1.5790    5.4590 o         1 MOL     -0.572995
    152 C52         7.1820   -0.3470    3.7370 c3        1 MOL     -0.009397
    153 C53         6.4600    0.4570    2.6870 c3        1 MOL     -0.033439
    154 C54         5.6940    1.6530    3.3340 c         1 MOL      0.739118
    155 O22         4.9020    1.4980    4.3180 o         1 MOL     -0.747318
    156 O23         5.9030    2.7810    2.8790 o         1 MOL     -0.747318
    157 H67         9.3970    0.0860    2.4820 hn        1 MOL      0.260272
    158 H68         7.5590   -2.1400    2.6090 h1        1 MOL      0.064503
    159 H69         7.8230    0.3750    4.2260 hc        1 MOL     -0.010075
    160 H70         6.4810   -0.8450    4.4130 hc        1 MOL     -0.010075
    161 H71         5.6520   -0.1280    2.2390 hc        1 MOL     -0.051863
    162 H72         7.1620    0.8470    1.9470 hc        1 MOL     -0.051863
    163 N14         8.8410   -3.4920    4.5100 n         1 MOL     -0.217172
    164 C55         8.5960   -4.5180    3.5050 c3        1 MOL     -0.282530
    165 H73         7.6040   -4.3750    3.0770 h1        1 MOL      0.110294
    166 H74         9.3450   -4.4420    2.7180 h1        1 MOL      0.110294
    167 H75         8.6530   -5.5020    3.9690 h1        1 MOL      0.110294
    168 H76         9.1590   -3.7280    5.4300 hn        1 MOL      0.224538
    169 Ca1        -5.6450   -2.1250   -0.2170 Ca        1 MOL      1.787457
    170 O24        -5.6010   -3.2900    2.3800 oh        1 MOL     -0.850150
    171 H77        -5.0780   -3.8310    2.9830 ho        1 MOL      0.427094
    172 H78        -6.2420   -2.8660    2.9490 ho        1 MOL      0.427094
    173 O25        -4.0340    0.2350    0.1100 oh        1 MOL     -0.850150
    174 H79        -4.4930    1.0540   -0.0710 ho        1 MOL      0.427094
    175 H80        -3.2040    0.5170    0.5150 ho        1 MOL      0.427094
    176 O26        -4.0470   -1.3370   -2.5280 oh        1 MOL     -0.850150
    177 H81        -3.7320   -1.9130   -3.2220 ho        1 MOL      0.427094
    178 H82        -4.1180   -0.4800   -2.9440 ho        1 MOL      0.427094
    179 O27        -7.1470   -2.1910   -2.4500 oh        1 MOL     -0.850150
    180 H83        -7.8150   -2.6340   -2.9790 ho        1 MOL      0.427094
    181 H84        -7.1730   -1.2770   -2.7460 ho        1 MOL      0.427094
    182 O28        -3.2320   -3.0910    0.1530 oh        1 MOL     -0.850150
    183 H85        -2.8660   -3.6190   -0.5600 ho        1 MOL      0.427094
    184 H86        -2.4900   -2.9080    0.7250 ho        1 MOL      0.427094
@<TRIPOS>BOND
     1    1    2 1   
     2    1    4 1   
     3    1    5 1   
     4    1    6 1   
     5    2    3 2   
     6    2    7 1   
     7    7    8 1   
     8    7   15 1   
     9    8    9 1   
    10    8   11 1   
    11    8   16 1   
    12    9   10 2   
    13    9   19 1   
    14   11   12 1   
    15   11   17 1   
    16   11   18 1   
    17   12   13 1   
    18   12   14 1   
    19   19   20 1   
    20   19   24 1   
    21   20   21 1   
    22   20   23 1   
    23   20   25 1   
    24   21   22 2   
    25   21   29 1   
    26   23   26 1   
    27   23   27 1   
    28   23   28 1   
    29   29   30 1   
    30   29   37 1   
    31   30   31 1   
    32   30   33 1   
    33   30   38 1   
    34   31   32 2   
    35   31   41 1   
    36   33   34 1   
    37   33   39 1   
    38   33   40 1   
    39   34   35 1   
    40   34   36 1   
    41   41   42 1   
    42   41   45 1   
    43   42   43 1   
    44   42   46 1   
    45   42   47 1   
    46   43   44 2   
    47   43   48 1   
    48   48   49 1   
    49   48   56 1   
    50   49   50 1   
    51   49   52 1   
    52   49   57 1   
    53   50   51 2   
    54   50   62 1   
    55   52   53 1   
    56   52   58 1   
    57   52   59 1   
    58   53   54 1   
    59   53   55 2   
    60   54   60 1   
    61   54   61 1   
    62   62   63 1   
    63   62   66 1   
    64   63   64 1   
    65   63   67 1   
    66   63   68 1   
    67   64   65 2   
    68   64   69 1   
    69   69   70 1   
    70   69   76 1   
    71   70   71 1   
    72   70   73 1   
    73   70   77 1   
    74   71   72 2   
    75   71   83 1   
    76   73   74 1   
    77   73   75 1   
    78   73   78 1   
    79   74   80 1   
    80   74   81 1   
    81   74   82 1   
    82   75   79 1   
    83   83   84 1   
    84   83   91 1   
    85   84   85 1   
    86   84   87 1   
    87   84   92 1   
    88   85   86 2   
    89   85  102 1   
    90   87   88 1   
    91   87   89 1   
    92   87   93 1   
    93   88   90 1   
    94   88   94 1   
    95   88   95 1   
    96   89   96 1   
    97   89   97 1   
    98   89   98 1   
    99   90   99 1   
   100   90  100 1   
   101   90  101 1   
   102  102  103 1   
   103  102  110 1   
   104  103  104 1   
   105  103  106 1   
   106  103  111 1   
   107  104  105 2   
   108  104  114 1   
   109  106  107 1   
   110  106  112 1   
   111  106  113 1   
   112  107  108 1   
   113  107  109 1   
   114  114  115 1   
   115  114  125 1   
   116  115  116 1   
   117  115  118 1   
   118  115  126 1   
   119  116  117 2   
   120  116  134 1   
   121  118  119 1   
   122  118  127 1   
   123  118  128 1   
   124  119  120 ar  
   125  119  121 ar  
   126  120  122 ar  
   127  120  129 1   
   128  121  123 ar  
   129  121  130 1   
   130  122  124 ar  
   131  122  131 1   
   132  123  124 ar  
   133  123  132 1   
   134  124  133 1   
   135  134  135 1   
   136  134  140 1   
   137  135  136 1   
   138  135  138 1   
   139  135  141 1   
   140  136  137 2   
   141  136  148 1   
   142  138  139 1   
   143  138  142 1   
   144  138  143 1   
   145  139  140 1   
   146  139  144 1   
   147  139  145 1   
   148  140  146 1   
   149  140  147 1   
   150  148  149 1   
   151  148  157 1   
   152  149  150 1   
   153  149  152 1   
   154  149  158 1   
   155  150  151 2   
   156  150  163 1   
   157  152  153 1   
   158  152  159 1   
   159  152  160 1   
   160  153  154 1   
   161  153  161 1   
   162  153  162 1   
   163  154  155 1   
   164  154  156 1   
   165  163  164 1   
   166  163  168 1   
   167  164  165 1   
   168  164  166 1   
   169  164  167 1   
   170  170  171 1   
   171  170  172 1   
   172  173  174 1   
   173  173  175 1   
   174  176  177 1   
   175  176  178 1   
   176  179  180 1   
   177  179  181 1   
   178  182  183 1   
   179  182  184 1   
@<TRIPOS>SUBSTRUCTURE
     1 MOL         1 TEMP              0 ****  ****    0 ROOT
