@<TRIPOS>MOLECULE
MOL
  192   187     1     0     0
SMALL
resp


@<TRIPOS>ATOM
      1 C1          4.4110    4.7200   -3.4790 c3        1 MOL     -0.321168
      2 C2          5.1440    3.8250   -2.4460 c         1 MOL      0.903539
      3 O1          4.5310    3.3740   -1.4540 o         1 MOL     -0.724660
      4 H1          4.9360    5.6710   -3.5720 hc        1 MOL      0.088606
      5 H2          4.3930    4.2190   -4.4470 hc        1 MOL      0.088606
      6 H3          3.3900    4.9010   -3.1430 hc        1 MOL      0.088606
      7 N1          6.4100    3.4360   -2.6240 n         1 MOL     -0.746506
      8 C3          7.1630    2.3430   -1.9780 c3        1 MOL      0.139567
      9 C4          6.3050    1.0760   -1.7120 c         1 MOL      0.534487
     10 O2          6.0040    0.7550   -0.5620 o         1 MOL     -0.620866
     11 C5          7.9590    2.8800   -0.7700 c3        1 MOL     -0.136188
     12 C6          7.2440    3.8440    0.1620 c         1 MOL      0.712158
     13 O3          6.5660    3.2530    1.0120 o         1 MOL     -0.702117
     14 O4          7.4410    5.0990    0.1040 o         1 MOL     -0.702117
     15 H4          6.7670    3.6980   -3.5370 hn        1 MOL      0.333862
     16 H5          7.9060    2.0220   -2.7210 h1        1 MOL      0.059055
     17 H6          8.9040    3.3830   -0.9920 hc        1 MOL      0.042359
     18 H7          8.5020    2.0300   -0.3690 hc        1 MOL      0.042359
     19 N2          5.7130    0.5600   -2.8360 n         1 MOL     -0.720402
     20 C7          4.9470   -0.6740   -2.9230 c3        1 MOL      0.200499
     21 C8          5.6510   -1.9800   -2.3620 c         1 MOL      0.415862
     22 O5          5.6150   -3.0130   -3.0040 o         1 MOL     -0.547006
     23 C9          3.5210   -0.6520   -2.3710 c3        1 MOL      0.384547
     24 C10         2.6230   -1.7670   -2.9290 c3        1 MOL     -0.346705
     25 C11         2.8630    0.6440   -2.8580 c3        1 MOL     -0.304734
     26 C12         2.6350   -2.1420   -4.3990 c3        1 MOL      0.140872
     27 H8          5.9030    1.0160   -3.7150 hn        1 MOL      0.358563
     28 H9          4.8110   -0.9070   -3.9790 h1        1 MOL      0.009246
     29 H10         3.5450   -0.6630   -1.2760 hc        1 MOL     -0.140809
     30 H11         1.6000   -1.4620   -2.7470 hc        1 MOL      0.099082
     31 H12         2.8140   -2.6440   -2.3190 hc        1 MOL      0.099082
     32 H13         3.3480    1.5390   -2.4850 hc        1 MOL      0.062475
     33 H14         2.8710    0.6550   -3.9560 hc        1 MOL      0.062475
     34 H15         1.8120    0.6690   -2.5740 hc        1 MOL      0.062475
     35 H16         2.4300   -1.2650   -5.0200 hc        1 MOL     -0.039410
     36 H17         3.6190   -2.5200   -4.6740 hc        1 MOL     -0.039410
     37 H18         1.9030   -2.8890   -4.6880 hc        1 MOL     -0.039410
     38 N3          6.3740   -1.8780   -1.2110 n         1 MOL     -0.161546
     39 C13         7.2840   -2.8590   -0.6910 c3        1 MOL     -0.068053
     40 C14         6.7100   -4.1500   -0.1870 c         1 MOL      0.817587
     41 O6          7.2840   -5.1800   -0.4860 o         1 MOL     -0.587732
     42 C15         8.1670   -2.2840    0.4480 c3        1 MOL     -0.207809
     43 C16         9.4150   -3.0960    0.7750 c         1 MOL      0.678959
     44 O7         10.1700   -3.3170   -0.1890 o         1 MOL     -0.720949
     45 O8          9.5210   -3.5520    1.9230 o         1 MOL     -0.720949
     46 H19         6.2830   -1.0180   -0.6950 hn        1 MOL      0.260994
     47 H20         7.8890   -3.1320   -1.5580 h1        1 MOL      0.039365
     48 H21         7.6000   -2.3020    1.3690 hc        1 MOL      0.035788
     49 H22         8.4270   -1.2550    0.1950 hc        1 MOL      0.035788
     50 N4          5.5210   -4.2430    0.4280 n         1 MOL     -0.809891
     51 C17         4.6920   -3.2110    1.0400 c3        1 MOL      0.674453
     52 C18         4.9780   -2.7320    2.4480 c         1 MOL      0.396783
     53 O9          5.9640   -3.2260    3.0490 o         1 MOL     -0.510277
     54 H23         5.0970   -5.1610    0.4940 hn        1 MOL      0.312769
     55 H24         3.6900   -3.6520    1.0960 h1        1 MOL     -0.110459
     56 H25         4.6930   -2.3670    0.3480 h1        1 MOL     -0.110459
     57 N5          4.0320   -2.1150    3.0900 n         1 MOL     -0.531727
     58 C19         2.5820   -1.9140    2.7860 c3        1 MOL      0.069822
     59 C20         2.4600   -0.9620    1.5330 c         1 MOL      0.243594
     60 O10         3.4310   -0.2480    1.2430 o         1 MOL     -0.389131
     61 C21         1.9300   -1.1490    3.9850 c3        1 MOL     -0.344495
     62 C22         2.2300   -1.5660    5.4230 c         1 MOL      0.709644
     63 O11         2.3710   -0.7060    6.3220 o         1 MOL     -0.707038
     64 O12         2.0910   -2.8070    5.7290 o         1 MOL     -0.707038
     65 H26         4.3840   -1.6440    3.9090 hn        1 MOL      0.359945
     66 H27         2.1360   -2.8950    2.6800 h1        1 MOL      0.086673
     67 H28         0.8400   -1.0900    3.9160 hc        1 MOL      0.083709
     68 H29         2.3700   -0.1750    3.7720 hc        1 MOL      0.083709
     69 N6          1.3030   -0.7480    0.9150 n         1 MOL     -0.209957
     70 C23        -0.0570   -1.3660    1.0870 c3        1 MOL      0.033502
     71 C24        -0.1920   -2.7950    0.4500 c         1 MOL      0.573103
     72 O13         0.6510   -3.2750   -0.2590 o         1 MOL     -0.545766
     73 H30         1.3660   -0.0570    0.1720 hn        1 MOL      0.153375
     74 H31        -0.8590   -0.7100    0.7560 h1        1 MOL      0.055220
     75 H32        -0.2050   -1.6110    2.1360 h1        1 MOL      0.055220
     76 N7         -1.3430   -3.4320    0.6120 n         1 MOL     -0.369501
     77 C25        -1.6410   -4.7840    0.0860 c3        1 MOL      0.045149
     78 C26        -2.4600   -4.7390   -1.2470 c         1 MOL      0.487146
     79 O14        -2.3610   -5.6590   -1.9760 o         1 MOL     -0.527197
     80 C27        -2.4950   -5.6790    1.1760 c3        1 MOL     -0.229477
     81 C28        -3.7330   -4.8750    1.7510 c3        1 MOL     -0.129773
     82 C29        -4.9080   -4.6720    0.8790 c         1 MOL      0.511020
     83 N8         -5.6080   -5.7260    0.5350 n         1 MOL     -0.676963
     84 O15        -5.2250   -3.5340    0.5070 o         1 MOL     -0.508057
     85 H33        -2.0940   -3.0540    1.1630 hn        1 MOL      0.211388
     86 H34        -0.7200   -5.2990   -0.1770 h1        1 MOL      0.129887
     87 H35        -1.8170   -5.8900    2.0090 hc        1 MOL      0.095427
     88 H36        -2.8890   -6.5880    0.7300 hc        1 MOL      0.095427
     89 H37        -3.5640   -3.9510    2.2940 hc        1 MOL      0.083366
     90 H38        -4.0210   -5.5140    2.5920 hc        1 MOL      0.083366
     91 H39        -5.4010   -6.6570    0.8560 hn        1 MOL      0.342080
     92 H40        -6.3980   -5.5710   -0.0710 hn        1 MOL      0.342080
     93 N9         -3.0960   -3.6020   -1.5980 n         1 MOL     -0.230385
     94 C30        -3.4460   -3.1980   -2.9980 c3        1 MOL     -0.242856
     95 C31        -4.7780   -2.4840   -3.0850 c         1 MOL      0.403910
     96 O16        -5.0990   -1.8150   -4.0850 o         1 MOL     -0.522788
     97 C32        -2.3680   -2.2860   -3.6070 c3        1 MOL      0.233552
     98 C33        -1.0620   -3.0650   -3.8580 c3        1 MOL     -0.146058
     99 C34        -1.9820   -1.0470   -2.7520 c3        1 MOL     -0.146058
    100 H41        -3.3960   -2.9830   -0.8560 hn        1 MOL      0.158597
    101 H42        -3.4380   -4.0810   -3.6340 h1        1 MOL      0.151358
    102 H43        -2.6040   -1.9040   -4.6090 hc        1 MOL     -0.016943
    103 H44        -0.2030   -2.3920   -3.8350 hc        1 MOL      0.040465
    104 H45        -0.9250   -3.7590   -3.0260 hc        1 MOL      0.040465
    105 H46        -1.0380   -3.6350   -4.7840 hc        1 MOL      0.040465
    106 H47        -2.9160   -0.5090   -2.5870 hc        1 MOL      0.040465
    107 H48        -1.5590   -1.3880   -1.8090 hc        1 MOL      0.040465
    108 H49        -1.3370   -0.4890   -3.4220 hc        1 MOL      0.040465
    109 N10        -5.6610   -2.5330   -2.0510 n         1 MOL     -0.208960
    110 C35        -6.9250   -1.7930   -2.0660 c3        1 MOL      0.081544
    111 C36        -7.0750   -0.3700   -1.4440 c         1 MOL      0.507910
    112 O17        -8.1110    0.2770   -1.6250 o         1 MOL     -0.529878
    113 C37        -7.9630   -2.7020   -1.3550 c3        1 MOL     -0.106098
    114 C38        -7.9240   -4.1290   -1.9160 c         1 MOL      0.614091
    115 N11        -8.1870   -4.4000   -3.1850 n         1 MOL     -0.807336
    116 O18        -7.6330   -5.0390   -1.1860 o         1 MOL     -0.550201
    117 H50        -5.3360   -2.8930   -1.1680 hn        1 MOL      0.218425
    118 H51        -7.2760   -1.7500   -3.0990 h1        1 MOL      0.029068
    119 H52        -8.9420   -2.2640   -1.5510 hc        1 MOL      0.013617
    120 H53        -7.7630   -2.7810   -0.2830 hc        1 MOL      0.013617
    121 H54        -8.3710   -3.5890   -3.7650 hn        1 MOL      0.384935
    122 H55        -8.2900   -5.3710   -3.4410 hn        1 MOL      0.384935
    123 N12        -6.1250    0.2010   -0.7400 n         1 MOL     -0.523751
    124 C39        -6.3510    1.5420   -0.0920 c3        1 MOL      0.212248
    125 C40        -5.1520    2.4320    0.2340 c         1 MOL      0.431756
    126 O19        -4.1420    1.8540    0.6130 o         1 MOL     -0.469792
    127 C41        -7.3340    1.3270    1.0600 c3        1 MOL     -0.039554
    128 C42        -7.0510    0.1710    2.0340 ca        1 MOL      0.306487
    129 C43        -7.9300   -0.9450    2.0850 ca        1 MOL     -0.423394
    130 C44        -6.0270    0.2930    2.9380 ca        1 MOL     -0.423394
    131 C45        -7.5440   -2.0850    2.7980 ca        1 MOL     -0.062108
    132 C46        -5.6970   -0.7330    3.7990 ca        1 MOL     -0.062108
    133 C47        -6.3730   -1.9560    3.6590 ca        1 MOL      0.154952
    134 O20        -6.0040   -3.0020    4.3730 oh        1 MOL     -0.442793
    135 H56        -5.3650   -0.3820   -0.4040 hn        1 MOL      0.296367
    136 H57        -6.9550    2.0670   -0.8380 h1        1 MOL      0.040644
    137 H58        -8.2860    1.1700    0.5430 hc        1 MOL      0.009538
    138 H59        -7.4850    2.2380    1.6450 hc        1 MOL      0.009538
    139 H60        -8.8170   -0.9750    1.4780 ha        1 MOL      0.212443
    140 H61        -5.4950    1.2160    3.1320 ha        1 MOL      0.212443
    141 H62        -8.1710   -2.9610    2.8820 ha        1 MOL      0.117589
    142 H63        -4.7650   -0.5990    4.3340 ha        1 MOL      0.117589
    143 H64        -6.4820   -3.7740    4.0740 ho        1 MOL      0.330683
    144 N13        -5.3340    3.7470    0.0930 n         1 MOL     -0.489008
    145 C48        -4.5480    4.8530    0.7050 c3        1 MOL     -0.034681
    146 C49        -3.0510    4.9450    0.2860 c         1 MOL      0.245326
    147 O21        -2.4810    6.0530    0.4640 o         1 MOL     -0.479195
    148 C50        -4.7960    5.0630    2.2340 c3        1 MOL      0.119846
    149 C51        -6.2610    5.2730    2.5850 c3        1 MOL     -0.404002
    150 C52        -6.9470    6.4600    1.8960 c         1 MOL      0.769683
    151 O22        -6.4200    7.5330    1.5260 o         1 MOL     -0.744811
    152 O23        -8.1260    6.2850    1.5090 o         1 MOL     -0.744811
    153 H65        -6.1400    3.9810   -0.4550 hn        1 MOL      0.321242
    154 H66        -5.0390    5.7050    0.2250 h1        1 MOL      0.157042
    155 H67        -4.1670    5.8850    2.5810 hc        1 MOL      0.024861
    156 H68        -4.5430    4.1290    2.7430 hc        1 MOL      0.024861
    157 H69        -6.3050    5.4690    3.6590 hc        1 MOL      0.073614
    158 H70        -6.7730    4.3440    2.3450 hc        1 MOL      0.073614
    159 N14        -2.4140    3.9850   -0.3890 n         1 MOL     -0.094871
    160 C53        -1.1600    4.2590   -1.1520 c3        1 MOL      0.017372
    161 C54        -1.3610    5.3030   -2.2530 c         1 MOL      0.357203
    162 O24        -0.4670    6.1040   -2.5680 o         1 MOL     -0.538155
    163 C55        -0.6710    2.9500   -1.8720 c3        1 MOL      0.014953
    164 C56        -0.4400    1.8230   -0.8280 c3        1 MOL      0.139312
    165 C57         0.6090    2.2410    0.2760 c         1 MOL      0.515781
    166 O25         0.2310    2.9040    1.2370 o         1 MOL     -0.639767
    167 O26         1.8150    1.9480    0.0310 o         1 MOL     -0.639767
    168 H71        -2.8730    3.0900   -0.4900 hn        1 MOL      0.179716
    169 H72        -0.4320    4.7530   -0.5070 h1        1 MOL      0.139963
    170 H73         0.3050    3.1790   -2.3020 hc        1 MOL     -0.013937
    171 H74        -1.4390    2.6870   -2.6040 hc        1 MOL     -0.013937
    172 H75        -0.0950    0.9650   -1.3960 hc        1 MOL     -0.086219
    173 H76        -1.4160    1.4920   -0.4630 hc        1 MOL     -0.086219
    174 N15        -2.5730    5.2710   -2.7540 n         1 MOL     -0.074309
    175 C58        -3.2230    6.1510   -3.7740 c3        1 MOL     -0.357225
    176 H77        -2.7770    7.1450   -3.7320 h1        1 MOL      0.129661
    177 H78        -3.0740    5.7280   -4.7670 h1        1 MOL      0.129661
    178 H79        -4.2900    6.2240   -3.5650 h1        1 MOL      0.129661
    179 H80        -3.1750    4.5450   -2.3990 hn        1 MOL      0.153054
    180 Ca1         4.2850    2.1960    0.8950 Ca        1 MOL      1.802751
    181 O27         2.2450    2.3440    2.9380 oh        1 MOL     -0.828751
    182 H81         1.4800    2.4680    2.3850 ho        1 MOL      0.400200
    183 H82         1.8940    2.2980    3.8300 ho        1 MOL      0.400200
    184 O28         4.4940    4.1140    3.4810 oh        1 MOL     -0.828751
    185 H83         3.7220    4.3610    3.9750 ho        1 MOL      0.400200
    186 H84         4.5740    4.7770    2.8020 ho        1 MOL      0.400200
    187 O29         3.8580    5.0190    1.0660 oh        1 MOL     -0.828751
    188 H85         4.1180    5.5700    0.3340 ho        1 MOL      0.400200
    189 H86         3.3120    5.5770    1.6100 ho        1 MOL      0.400200
    190 O30         5.4020    1.0190    3.1250 oh        1 MOL     -0.828751
    191 H87         4.6370    1.0600    3.6920 ho        1 MOL      0.400200
    192 H88         6.1430    0.9510    3.7270 ho        1 MOL      0.400200
@<TRIPOS>BOND
     1    1    2 1   
     2    1    4 1   
     3    1    5 1   
     4    1    6 1   
     5    2    3 2   
     6    2    7 1   
     7    7    8 1   
     8    7   15 1   
     9    8    9 1   
    10    8   11 1   
    11    8   16 1   
    12    9   10 2   
    13    9   19 1   
    14   11   12 1   
    15   11   17 1   
    16   11   18 1   
    17   12   13 1   
    18   12   14 1   
    19   19   20 1   
    20   19   27 1   
    21   20   21 1   
    22   20   23 1   
    23   20   28 1   
    24   21   22 2   
    25   21   38 1   
    26   23   24 1   
    27   23   25 1   
    28   23   29 1   
    29   24   26 1   
    30   24   30 1   
    31   24   31 1   
    32   25   32 1   
    33   25   33 1   
    34   25   34 1   
    35   26   35 1   
    36   26   36 1   
    37   26   37 1   
    38   38   39 1   
    39   38   46 1   
    40   39   40 1   
    41   39   42 1   
    42   39   47 1   
    43   40   41 2   
    44   40   50 1   
    45   42   43 1   
    46   42   48 1   
    47   42   49 1   
    48   43   44 1   
    49   43   45 1   
    50   50   51 1   
    51   50   54 1   
    52   51   52 1   
    53   51   55 1   
    54   51   56 1   
    55   52   53 2   
    56   52   57 1   
    57   57   58 1   
    58   57   65 1   
    59   58   59 1   
    60   58   61 1   
    61   58   66 1   
    62   59   60 2   
    63   59   69 1   
    64   61   62 1   
    65   61   67 1   
    66   61   68 1   
    67   62   63 1   
    68   62   64 1   
    69   69   70 1   
    70   69   73 1   
    71   70   71 1   
    72   70   74 1   
    73   70   75 1   
    74   71   72 2   
    75   71   76 1   
    76   76   77 1   
    77   76   85 1   
    78   77   78 1   
    79   77   80 1   
    80   77   86 1   
    81   78   79 2   
    82   78   93 1   
    83   80   81 1   
    84   80   87 1   
    85   80   88 1   
    86   81   82 1   
    87   81   89 1   
    88   81   90 1   
    89   82   83 1   
    90   82   84 2   
    91   83   91 1   
    92   83   92 1   
    93   93   94 1   
    94   93  100 1   
    95   94   95 1   
    96   94   97 1   
    97   94  101 1   
    98   95   96 2   
    99   95  109 1   
   100   97   98 1   
   101   97   99 1   
   102   97  102 1   
   103   98  103 1   
   104   98  104 1   
   105   98  105 1   
   106   99  106 1   
   107   99  107 1   
   108   99  108 1   
   109  109  110 1   
   110  109  117 1   
   111  110  111 1   
   112  110  113 1   
   113  110  118 1   
   114  111  112 2   
   115  111  123 1   
   116  113  114 1   
   117  113  119 1   
   118  113  120 1   
   119  114  115 1   
   120  114  116 2   
   121  115  121 1   
   122  115  122 1   
   123  123  124 1   
   124  123  135 1   
   125  124  125 1   
   126  124  127 1   
   127  124  136 1   
   128  125  126 2   
   129  125  144 1   
   130  127  128 1   
   131  127  137 1   
   132  127  138 1   
   133  128  129 ar  
   134  128  130 ar  
   135  129  131 ar  
   136  129  139 1   
   137  130  132 ar  
   138  130  140 1   
   139  131  133 ar  
   140  131  141 1   
   141  132  133 ar  
   142  132  142 1   
   143  133  134 1   
   144  134  143 1   
   145  144  145 1   
   146  144  153 1   
   147  145  146 1   
   148  145  148 1   
   149  145  154 1   
   150  146  147 2   
   151  146  159 1   
   152  148  149 1   
   153  148  155 1   
   154  148  156 1   
   155  149  150 1   
   156  149  157 1   
   157  149  158 1   
   158  150  151 1   
   159  150  152 1   
   160  159  160 1   
   161  159  168 1   
   162  160  161 1   
   163  160  163 1   
   164  160  169 1   
   165  161  162 2   
   166  161  174 1   
   167  163  164 1   
   168  163  170 1   
   169  163  171 1   
   170  164  165 1   
   171  164  172 1   
   172  164  173 1   
   173  165  166 1   
   174  165  167 1   
   175  174  175 1   
   176  174  179 1   
   177  175  176 1   
   178  175  177 1   
   179  175  178 1   
   180  181  182 1   
   181  181  183 1   
   182  184  185 1   
   183  184  186 1   
   184  187  188 1   
   185  187  189 1   
   186  190  191 1   
   187  190  192 1   
@<TRIPOS>SUBSTRUCTURE
     1 MOL         1 TEMP              0 ****  ****    0 ROOT
