@<TRIPOS>MOLECULE
MOL
  192   187     1     0     0
SMALL
resp


@<TRIPOS>ATOM
      1 C1          0.0980    8.4010   -2.6440 c3        1 MOL     -0.387965
      2 C2          0.3040    6.9460   -2.4070 c         1 MOL      0.656154
      3 O1          0.1040    6.1280   -3.2720 o         1 MOL     -0.565889
      4 H1          0.2090    8.6150   -3.7080 hc        1 MOL      0.095957
      5 H2         -0.9040    8.6840   -2.3210 hc        1 MOL      0.095957
      6 H3          0.8360    8.9700   -2.0800 hc        1 MOL      0.095957
      7 N1          0.7180    6.6020   -1.1910 n         1 MOL     -0.348584
      8 C3          0.9830    5.1910   -0.7830 c3        1 MOL     -0.170717
      9 C4         -0.2110    4.4200   -0.2530 c         1 MOL      0.497220
     10 O2         -0.0860    3.2150    0.0290 o         1 MOL     -0.464038
     11 C5          2.0750    5.2070    0.3560 c3        1 MOL     -0.125514
     12 C6          1.7230    6.0390    1.6570 c         1 MOL      0.632493
     13 O3          1.5360    7.2970    1.5590 o         1 MOL     -0.675904
     14 O4          1.4990    5.3720    2.7070 o         1 MOL     -0.675904
     15 H4          0.8640    7.3510   -0.5240 hn        1 MOL      0.216527
     16 H5          1.4540    4.6700   -1.6100 h1        1 MOL      0.160062
     17 H6          2.9940    5.5870   -0.0850 hc        1 MOL      0.053868
     18 H7          2.2860    4.1670    0.6110 hc        1 MOL      0.053868
     19 N2         -1.3350    5.0550    0.0670 n         1 MOL     -0.256244
     20 C7         -2.4700    4.3790    0.5190 c3        1 MOL      0.010880
     21 C8         -3.0990    3.4550   -0.5140 c         1 MOL      0.528551
     22 O5         -2.9240    3.7680   -1.7160 o         1 MOL     -0.545203
     23 C9         -3.3380    5.5380    1.0260 c3        1 MOL     -0.047267
     24 C10        -2.7500    6.3850    2.1570 c3        1 MOL     -0.130368
     25 C11        -2.3430    5.7320    3.4770 c3        1 MOL     -0.195679
     26 C12        -1.6410    6.5730    4.4870 c3        1 MOL      0.092963
     27 N3         -0.3950    7.0970    3.9630 n4        1 MOL     -0.174394
     28 H8         -1.4560    5.9820   -0.3150 hn        1 MOL      0.199221
     29 H9         -2.1590    3.8020    1.3880 h1        1 MOL      0.048395
     30 H10        -4.2220    4.9860    1.3500 hc        1 MOL      0.038383
     31 H11        -3.7960    6.1560    0.2540 hc        1 MOL      0.038383
     32 H12        -3.3930    7.2530    2.3180 hc        1 MOL      0.050334
     33 H13        -1.8520    6.9120    1.8260 hc        1 MOL      0.050334
     34 H14        -1.5850    4.9930    3.1890 hc        1 MOL      0.114870
     35 H15        -3.1660    5.2170    3.9550 hc        1 MOL      0.114870
     36 H16        -1.4320    5.8980    5.3250 hx        1 MOL      0.040741
     37 H17        -2.2470    7.4040    4.8460 hx        1 MOL      0.040741
     38 H18         0.0640    7.6450    4.6760 hn        1 MOL      0.253938
     39 H19         0.3120    6.4310    3.6910 hn        1 MOL      0.253938
     40 H20        -0.6150    7.6920    3.1730 hn        1 MOL      0.253938
     41 N4         -3.7910    2.4030   -0.2650 n         1 MOL     -0.502500
     42 C13        -3.8850    1.6400    1.0410 c3        1 MOL      0.385758
     43 C14        -4.4210    2.4530    2.1660 c         1 MOL      0.597438
     44 O6         -3.7720    2.6260    3.1920 o         1 MOL     -0.588048
     45 C15        -2.6500    0.7970    1.3220 c3        1 MOL     -0.473481
     46 C16        -2.2020    0.0170    0.1120 c         1 MOL      0.879036
     47 O7         -2.9890   -0.2750   -0.8610 o         1 MOL     -0.771234
     48 O8         -0.9790   -0.3860    0.0150 o         1 MOL     -0.771234
     49 H21        -3.9660    1.8970   -1.1260 hn        1 MOL      0.303293
     50 H22        -4.6350    0.8910    0.7970 h1        1 MOL     -0.068044
     51 H23        -2.8540    0.1130    2.1450 hc        1 MOL      0.132860
     52 H24        -1.7700    1.4130    1.4640 hc        1 MOL      0.132860
     53 N5         -5.6770    2.8960    2.0280 n         1 MOL     -0.578273
     54 C17        -6.7930    2.5420    1.0570 c3        1 MOL      0.045311
     55 C18        -7.4830    1.2040    1.4700 c         1 MOL      0.600429
     56 O9         -7.3630    0.7300    2.5440 o         1 MOL     -0.541552
     57 H25        -5.8860    3.5780    2.7450 hn        1 MOL      0.326355
     58 H26        -6.4050    2.4470    0.0410 h1        1 MOL      0.052825
     59 H27        -7.5140    3.3560    1.0420 h1        1 MOL      0.052825
     60 N6         -8.2710    0.5510    0.5830 n         1 MOL     -0.458951
     61 C19        -8.5340    0.8820   -0.8590 c3        1 MOL     -0.192791
     62 C20        -7.9310   -0.2190   -1.7680 c         1 MOL      0.715875
     63 O10        -8.0360   -0.0770   -2.9830 o         1 MOL     -0.558141
     64 C21       -10.0540    1.2370   -1.1460 c3        1 MOL     -0.049833
     65 C22       -11.0200    0.1100   -0.7770 c         1 MOL      0.680853
     66 O11       -12.2450    0.3930   -0.8400 o         1 MOL     -0.626475
     67 O12       -10.5870   -1.0620   -0.6070 o         1 MOL     -0.626475
     68 H28        -8.7760   -0.2440    0.9380 hn        1 MOL      0.280502
     69 H29        -8.0070    1.7970   -1.0950 h1        1 MOL      0.083748
     70 H30       -10.2400    1.4860   -2.1930 hc        1 MOL      0.031889
     71 H31       -10.3700    2.0770   -0.5250 hc        1 MOL      0.031889
     72 N7         -7.2330   -1.2290   -1.1730 n         1 MOL     -0.445746
     73 C23        -6.8090   -2.3970   -1.9670 c3        1 MOL     -0.189822
     74 C24        -6.1800   -3.4430   -0.9820 c         1 MOL      0.608351
     75 O13        -6.9260   -4.2750   -0.3690 o         1 MOL     -0.535454
     76 H32        -7.3550   -1.3550   -0.1780 hn        1 MOL      0.310983
     77 H33        -6.0450   -2.1300   -2.6950 h1        1 MOL      0.110134
     78 H34        -7.6620   -2.8940   -2.4180 h1        1 MOL      0.110134
     79 N8         -4.8770   -3.5660   -0.9830 n         1 MOL     -0.503880
     80 C25        -4.2410   -4.5200   -0.0930 c3        1 MOL     -0.134211
     81 C26        -2.8510   -3.8750    0.1500 c         1 MOL      0.870078
     82 O14        -2.2770   -3.3090   -0.7140 o         1 MOL     -0.745481
     83 C27        -4.0810   -5.8830   -0.8280 c3        1 MOL      0.613210
     84 C28        -3.8440   -6.8950    0.2770 c3        1 MOL     -0.385307
     85 O15        -3.0780   -5.9100   -1.7880 oh        1 MOL     -0.615068
     86 H35        -4.2940   -2.9930   -1.5680 hn        1 MOL      0.258402
     87 H36        -4.8550   -4.7190    0.7820 h1        1 MOL      0.097167
     88 H37        -5.0620   -6.0630   -1.2700 h1        1 MOL     -0.051607
     89 H38        -3.3930   -5.2540   -2.4090 ho        1 MOL      0.306608
     90 H39        -3.9870   -7.8400   -0.2480 hc        1 MOL      0.092203
     91 H40        -2.8240   -6.7390    0.6340 hc        1 MOL      0.092203
     92 H41        -4.6080   -6.8680    1.0620 hc        1 MOL      0.092203
     93 N9         -2.3240   -4.0700    1.3300 n         1 MOL     -0.518522
     94 C29        -0.9430   -3.5980    1.7360 c3        1 MOL     -0.442423
     95 C30         0.1530   -4.5440    1.2380 c         1 MOL      0.961831
     96 O16        -0.0390   -5.7180    1.0290 o         1 MOL     -0.607516
     97 C31        -0.7810   -3.3520    3.2900 c3        1 MOL      0.308489
     98 C32        -0.9060   -4.5200    4.2480 c3        1 MOL     -0.156098
     99 C33        -1.7810   -2.2410    3.5390 c3        1 MOL     -0.229592
    100 C34        -0.5210   -4.2860    5.7150 c3        1 MOL     -0.082242
    101 H42        -2.8180   -4.5130    2.0950 hn        1 MOL      0.296620
    102 H43        -0.7970   -2.6390    1.2440 h1        1 MOL      0.160219
    103 H44         0.1850   -2.8810    3.4840 hc        1 MOL     -0.020338
    104 H45        -0.2190   -5.3000    3.9170 hc        1 MOL      0.060437
    105 H46        -1.9360   -4.8860    4.2170 hc        1 MOL      0.060437
    106 H47        -1.4940   -1.4510    2.8480 hc        1 MOL      0.064406
    107 H48        -2.8010   -2.5470    3.3250 hc        1 MOL      0.064406
    108 H49        -1.6310   -1.9340    4.5780 hc        1 MOL      0.064406
    109 H50         0.4620   -3.7990    5.7690 hc        1 MOL      0.028620
    110 H51        -1.2100   -3.6960    6.3220 hc        1 MOL      0.028620
    111 H52        -0.3480   -5.2540    6.1810 hc        1 MOL      0.028620
    112 N10         1.3280   -3.9460    1.0130 n         1 MOL     -0.804193
    113 C35         2.5250   -4.7830    0.7530 c3        1 MOL      0.026856
    114 C36         3.8360   -4.1440    1.2250 c         1 MOL      0.533296
    115 O17         4.7870   -4.9110    1.2500 o         1 MOL     -0.528775
    116 C37         2.5700   -5.1430   -0.7760 c3        1 MOL      0.395229
    117 C38         3.5710   -6.2940   -1.0910 c3        1 MOL     -0.491845
    118 O18         3.0270   -4.0920   -1.5690 oh        1 MOL     -0.628060
    119 H53         1.4370   -2.9470    1.0850 hn        1 MOL      0.378752
    120 H54         2.5080   -5.7460    1.2680 h1        1 MOL      0.090701
    121 H55         1.5790   -5.3930   -1.1630 h1        1 MOL      0.058794
    122 H56         2.2360   -3.6500   -1.8810 ho        1 MOL      0.354847
    123 H57         3.4910   -7.0730   -0.3480 hc        1 MOL      0.117366
    124 H58         3.1490   -6.8560   -1.9240 hc        1 MOL      0.117366
    125 H59         4.5930   -5.9280   -1.1970 hc        1 MOL      0.117366
    126 N11         3.8600   -2.9430    1.7380 n         1 MOL     -0.522958
    127 C39         5.1280   -2.3820    2.1470 c3        1 MOL      0.093029
    128 C40         6.1510   -2.0450    1.0450 c         1 MOL      0.242553
    129 O19         6.1440   -2.6050   -0.0300 o         1 MOL     -0.334582
    130 C41         5.8410   -3.0450    3.3770 c3        1 MOL      0.533383
    131 C42         4.8530   -3.4970    4.5320 c3        1 MOL     -0.252564
    132 O20         6.8110   -2.2080    3.9180 oh        1 MOL     -0.676762
    133 H60         2.9930   -2.4220    1.7780 hn        1 MOL      0.328432
    134 H61         4.9300   -1.4200    2.6240 h1        1 MOL      0.051655
    135 H62         6.3930   -3.9470    3.1130 h1        1 MOL     -0.035777
    136 H63         7.6860   -2.3530    3.5520 ho        1 MOL      0.388565
    137 H64         4.3620   -4.4450    4.3010 hc        1 MOL      0.060974
    138 H65         5.4450   -3.6010    5.4500 hc        1 MOL      0.060974
    139 H66         4.0370   -2.7850    4.5930 hc        1 MOL      0.060974
    140 N12         6.9890   -0.9900    1.2340 n         1 MOL     -0.269249
    141 C43         8.0040   -0.5280    0.3030 c3        1 MOL     -0.067003
    142 C44         7.4700   -0.2550   -1.1130 c         1 MOL      0.376102
    143 O21         8.0460   -0.6770   -2.1070 o         1 MOL     -0.516602
    144 C45         8.6970    0.6340    1.0610 c3        1 MOL     -0.140652
    145 C46        10.0760    0.8050    0.2950 c3        1 MOL      0.053085
    146 C47        11.1000    1.5610    1.0970 c3        1 MOL      0.043656
    147 C48        12.3370    1.7410    0.2240 c3        1 MOL     -0.077492
    148 N13        13.4820    2.4440    0.9180 n4        1 MOL     -0.054260
    149 H67         6.9420   -0.4860    2.1070 hn        1 MOL      0.197853
    150 H68         8.6400   -1.4110    0.2220 h1        1 MOL      0.130164
    151 H69         8.7500    0.3870    2.1220 hc        1 MOL      0.072707
    152 H70         8.1610    1.5670    0.8870 hc        1 MOL      0.072707
    153 H71         9.8930    1.3110   -0.6500 hc        1 MOL      0.017311
    154 H72        10.4630   -0.1900    0.0580 hc        1 MOL      0.017311
    155 H73        11.2690    1.0370    2.0350 hc        1 MOL      0.011889
    156 H74        10.7220    2.5360    1.3800 hc        1 MOL      0.011889
    157 H75        12.0890    2.3820   -0.6190 hx        1 MOL      0.094082
    158 H76        12.7370    0.7600   -0.0350 hx        1 MOL      0.094082
    159 H77        13.1710    3.3710    1.1710 hn        1 MOL      0.190151
    160 H78        13.6380    2.0290    1.8260 hn        1 MOL      0.190151
    161 H79        14.3510    2.4970    0.3950 hn        1 MOL      0.190151
    162 N14         6.2320    0.2500   -1.1860 n         1 MOL     -0.184237
    163 C49         5.5440    0.3270   -2.5280 c3        1 MOL     -0.177097
    164 C50         6.0510    1.4610   -3.3830 c         1 MOL      0.453800
    165 O22         5.5560    2.6160   -3.3750 o         1 MOL     -0.516561
    166 C51         3.9980    0.4750   -2.3240 c3        1 MOL     -0.080802
    167 C52         3.4160   -0.7820   -1.7670 c3        1 MOL     -0.029316
    168 C53         1.9010   -0.9650   -2.0000 c         1 MOL      0.550951
    169 O23         1.3570   -2.0870   -1.7060 o         1 MOL     -0.656846
    170 O24         1.1140   -0.0340   -2.2600 o         1 MOL     -0.656846
    171 H80         5.8480    0.5300   -0.3010 hn        1 MOL      0.228079
    172 H81         5.6740   -0.6050   -3.0800 h1        1 MOL      0.124748
    173 H82         3.4880    0.7710   -3.2430 hc        1 MOL      0.065416
    174 H83         3.8110    1.3380   -1.6910 hc        1 MOL      0.065416
    175 H84         3.7040   -0.8990   -0.7200 hc        1 MOL      0.064611
    176 H85         3.8590   -1.5450   -2.3950 hc        1 MOL      0.064611
    177 N15         7.0380    1.1990   -4.2260 n         1 MOL     -0.254881
    178 C54         7.5360    2.1360   -5.2820 c3        1 MOL     -0.161341
    179 H86         7.8760    1.5630   -6.1440 h1        1 MOL      0.091945
    180 H87         6.7300    2.8040   -5.5860 h1        1 MOL      0.091945
    181 H88         8.3650    2.7220   -4.8860 h1        1 MOL      0.091945
    182 H89         7.4330    0.2920   -4.0540 hn        1 MOL      0.242449
    183 Ca1        -1.1610   -1.6330   -2.3200 Ca        1 MOL      1.790474
    184 O25         0.0400   -2.1170   -4.5810 oh        1 MOL     -0.893605
    185 H90         0.5360   -1.4330   -5.0260 ho        1 MOL      0.436942
    186 H91         0.2680   -2.9220   -5.0450 ho        1 MOL      0.436942
    187 O26        -1.5390    0.4850   -3.8890 oh        1 MOL     -0.893605
    188 H92        -1.0000    1.2260   -3.6300 ho        1 MOL      0.436942
    189 H93        -1.7120    0.6240   -4.8250 ho        1 MOL      0.436942
    190 O27        -0.6660   -4.2840   -2.6840 oh        1 MOL     -0.893605
    191 H94        -0.3010   -4.7040   -3.4570 ho        1 MOL      0.436942
    192 H95        -1.4660   -4.7820   -2.5010 ho        1 MOL      0.436942
@<TRIPOS>BOND
     1    1    2 1   
     2    1    4 1   
     3    1    5 1   
     4    1    6 1   
     5    2    3 2   
     6    2    7 1   
     7    7    8 1   
     8    7   15 1   
     9    8    9 1   
    10    8   11 1   
    11    8   16 1   
    12    9   10 2   
    13    9   19 1   
    14   11   12 1   
    15   11   17 1   
    16   11   18 1   
    17   12   13 1   
    18   12   14 1   
    19   19   20 1   
    20   19   28 1   
    21   20   21 1   
    22   20   23 1   
    23   20   29 1   
    24   21   22 2   
    25   21   41 1   
    26   23   24 1   
    27   23   30 1   
    28   23   31 1   
    29   24   25 1   
    30   24   32 1   
    31   24   33 1   
    32   25   26 1   
    33   25   34 1   
    34   25   35 1   
    35   26   27 1   
    36   26   36 1   
    37   26   37 1   
    38   27   38 1   
    39   27   39 1   
    40   27   40 1   
    41   41   42 1   
    42   41   49 1   
    43   42   43 1   
    44   42   45 1   
    45   42   50 1   
    46   43   44 2   
    47   43   53 1   
    48   45   46 1   
    49   45   51 1   
    50   45   52 1   
    51   46   47 1   
    52   46   48 1   
    53   53   54 1   
    54   53   57 1   
    55   54   55 1   
    56   54   58 1   
    57   54   59 1   
    58   55   56 2   
    59   55   60 1   
    60   60   61 1   
    61   60   68 1   
    62   61   62 1   
    63   61   64 1   
    64   61   69 1   
    65   62   63 2   
    66   62   72 1   
    67   64   65 1   
    68   64   70 1   
    69   64   71 1   
    70   65   66 1   
    71   65   67 1   
    72   72   73 1   
    73   72   76 1   
    74   73   74 1   
    75   73   77 1   
    76   73   78 1   
    77   74   75 2   
    78   74   79 1   
    79   79   80 1   
    80   79   86 1   
    81   80   81 1   
    82   80   83 1   
    83   80   87 1   
    84   81   82 2   
    85   81   93 1   
    86   83   84 1   
    87   83   85 1   
    88   83   88 1   
    89   84   90 1   
    90   84   91 1   
    91   84   92 1   
    92   85   89 1   
    93   93   94 1   
    94   93  101 1   
    95   94   95 1   
    96   94   97 1   
    97   94  102 1   
    98   95   96 2   
    99   95  112 1   
   100   97   98 1   
   101   97   99 1   
   102   97  103 1   
   103   98  100 1   
   104   98  104 1   
   105   98  105 1   
   106   99  106 1   
   107   99  107 1   
   108   99  108 1   
   109  100  109 1   
   110  100  110 1   
   111  100  111 1   
   112  112  113 1   
   113  112  119 1   
   114  113  114 1   
   115  113  116 1   
   116  113  120 1   
   117  114  115 2   
   118  114  126 1   
   119  116  117 1   
   120  116  118 1   
   121  116  121 1   
   122  117  123 1   
   123  117  124 1   
   124  117  125 1   
   125  118  122 1   
   126  126  127 1   
   127  126  133 1   
   128  127  128 1   
   129  127  130 1   
   130  127  134 1   
   131  128  129 2   
   132  128  140 1   
   133  130  131 1   
   134  130  132 1   
   135  130  135 1   
   136  131  137 1   
   137  131  138 1   
   138  131  139 1   
   139  132  136 1   
   140  140  141 1   
   141  140  149 1   
   142  141  142 1   
   143  141  144 1   
   144  141  150 1   
   145  142  143 2   
   146  142  162 1   
   147  144  145 1   
   148  144  151 1   
   149  144  152 1   
   150  145  146 1   
   151  145  153 1   
   152  145  154 1   
   153  146  147 1   
   154  146  155 1   
   155  146  156 1   
   156  147  148 1   
   157  147  157 1   
   158  147  158 1   
   159  148  159 1   
   160  148  160 1   
   161  148  161 1   
   162  162  163 1   
   163  162  171 1   
   164  163  164 1   
   165  163  166 1   
   166  163  172 1   
   167  164  165 2   
   168  164  177 1   
   169  166  167 1   
   170  166  173 1   
   171  166  174 1   
   172  167  168 1   
   173  167  175 1   
   174  167  176 1   
   175  168  169 1   
   176  168  170 1   
   177  177  178 1   
   178  177  182 1   
   179  178  179 1   
   180  178  180 1   
   181  178  181 1   
   182  184  185 1   
   183  184  186 1   
   184  187  188 1   
   185  187  189 1   
   186  190  191 1   
   187  190  192 1   
@<TRIPOS>SUBSTRUCTURE
     1 MOL         1 TEMP              0 ****  ****    0 ROOT
