@<TRIPOS>MOLECULE
MOL
  181   177     1     0     0
SMALL
resp


@<TRIPOS>ATOM
      1 C1          1.4730    6.7010   -2.0280 c3        1 MOL     -0.446691
      2 C2          2.8450    6.6980   -1.2380 c         1 MOL      0.693900
      3 O1          2.8740    7.2740   -0.1470 o         1 MOL     -0.572893
      4 H1          0.6640    6.4330   -1.3490 hc        1 MOL      0.115953
      5 H2          1.2900    7.6960   -2.4350 hc        1 MOL      0.115953
      6 H3          1.5200    5.9770   -2.8410 hc        1 MOL      0.115953
      7 N1          3.9650    6.1750   -1.7890 n         1 MOL     -0.652707
      8 C3          5.3430    6.3310   -1.3090 c3        1 MOL      0.485710
      9 C4          5.7500    5.3160   -0.2110 c         1 MOL      0.473319
     10 O2          6.8150    4.6990   -0.2190 o         1 MOL     -0.491984
     11 C5          6.2660    6.3750   -2.4850 c3        1 MOL     -0.425075
     12 C6          7.6470    6.9120   -2.1020 c         1 MOL      0.777818
     13 O3          7.8030    7.8730   -1.3360 o         1 MOL     -0.745739
     14 O4          8.6660    6.3620   -2.5890 o         1 MOL     -0.745739
     15 H4          3.7740    5.7080   -2.6610 hn        1 MOL      0.300028
     16 H5          5.3360    7.3020   -0.8070 h1        1 MOL     -0.015182
     17 H6          6.0030    7.0210   -3.3240 hc        1 MOL      0.059643
     18 H7          6.4030    5.3470   -2.8300 hc        1 MOL      0.059643
     19 N2          4.8600    4.9900    0.7130 n         1 MOL     -0.606647
     20 C7          5.1000    4.0330    1.8140 c3        1 MOL      0.552464
     21 C8          3.7240    3.4890    2.3000 c         1 MOL      0.266960
     22 O5          2.6750    4.1560    2.2750 o         1 MOL     -0.486907
     23 C9          6.0140    4.6590    2.9410 c3        1 MOL     -0.372223
     24 H8          3.9170    5.3480    0.6600 hn        1 MOL      0.261773
     25 H9          5.7590    3.2200    1.4760 h1        1 MOL     -0.044654
     26 H10         6.9080    5.0550    2.4300 hc        1 MOL      0.096492
     27 H11         5.5070    5.5560    3.3000 hc        1 MOL      0.096492
     28 H12         6.2730    3.9230    3.7020 hc        1 MOL      0.096492
     29 N3          3.6360    2.2690    2.8980 n         1 MOL     -0.318314
     30 C10         4.6710    1.1960    3.0780 c3        1 MOL     -0.315389
     31 C11         4.8980    0.1040    1.9320 c         1 MOL      0.644019
     32 O6          4.1750    0.2500    0.9930 o         1 MOL     -0.412995
     33 C12         4.2510    0.4050    4.3450 c3        1 MOL     -0.038161
     34 C13         2.9600   -0.4980    4.1390 c         1 MOL      0.525284
     35 O7          2.2470   -0.3480    3.1260 o         1 MOL     -0.658600
     36 O8          2.6020   -1.2800    5.0610 o         1 MOL     -0.658600
     37 H13         2.6970    1.9990    3.1810 hn        1 MOL      0.292517
     38 H14         5.6150    1.7110    3.2320 h1        1 MOL      0.153983
     39 H15         4.0120    1.1130    5.1320 hc        1 MOL      0.047283
     40 H16         5.0910   -0.1530    4.7680 hc        1 MOL      0.047283
     41 N4          5.8480   -0.8840    1.9890 n         1 MOL     -0.582825
     42 C14         6.1090   -1.8840    1.0520 c3        1 MOL      0.247581
     43 C15         7.3730   -1.7500    0.1930 c         1 MOL      0.496704
     44 O9          8.1350   -0.7960    0.2940 o         1 MOL     -0.495858
     45 H17         6.4830   -0.7720    2.7650 hn        1 MOL      0.303110
     46 H18         5.2440   -1.9200    0.3880 h1        1 MOL     -0.012248
     47 H19         6.1610   -2.8590    1.5310 h1        1 MOL     -0.012248
     48 N5          7.5460   -2.5670   -0.8760 n         1 MOL     -0.638526
     49 C16         6.6470   -3.5560   -1.2770 c3        1 MOL      0.369327
     50 C17         5.4540   -2.9740   -2.1430 c         1 MOL      0.448339
     51 O10         5.5100   -1.7970   -2.4750 o         1 MOL     -0.445169
     52 C18         7.4170   -4.6280   -2.0050 c3        1 MOL     -0.393016
     53 C19         6.6460   -5.9910   -1.9330 c         1 MOL      0.683855
     54 N6          6.7810   -6.7310   -0.8650 n         1 MOL     -0.769893
     55 O11         5.8720   -6.2990   -2.7860 o         1 MOL     -0.534201
     56 H20         8.2930   -2.3750   -1.5420 hn        1 MOL      0.370205
     57 H21         6.2010   -3.9620   -0.3690 h1        1 MOL     -0.066295
     58 H22         8.4030   -4.7010   -1.5430 hc        1 MOL      0.107790
     59 H23         7.6450   -4.3990   -3.0450 hc        1 MOL      0.107790
     60 H24         7.4050   -6.4110   -0.1290 hn        1 MOL      0.366830
     61 H25         6.1740   -7.5230   -0.6810 hn        1 MOL      0.366830
     62 N7          4.5910   -3.8910   -2.6580 n         1 MOL     -0.414556
     63 C20         3.4900   -3.4390   -3.4990 c3        1 MOL     -0.059636
     64 C21         2.1630   -3.8800   -2.9690 c         1 MOL      0.472303
     65 O12         1.1690   -3.7430   -3.6660 o         1 MOL     -0.548232
     66 H26         4.7310   -4.8790   -2.5220 hn        1 MOL      0.225466
     67 H27         3.6110   -3.7740   -4.5340 h1        1 MOL      0.099684
     68 H28         3.5240   -2.3560   -3.4910 h1        1 MOL      0.099684
     69 N8          2.1050   -4.4300   -1.7470 n         1 MOL      0.102211
     70 C22         0.9100   -5.0770   -1.2010 c3        1 MOL     -0.863627
     71 C23        -0.1680   -4.1200   -0.7310 c         1 MOL      1.139366
     72 O13         0.1050   -3.2290    0.0250 o         1 MOL     -0.755052
     73 C24         1.0840   -6.2190   -0.2730 c3        1 MOL      0.568797
     74 C25         1.7340   -7.5190   -0.9060 c3        1 MOL     -0.304798
     75 O14         1.9470   -5.8830    0.8440 oh        1 MOL     -0.672195
     76 H29         2.9330   -4.4250   -1.1610 hn        1 MOL      0.176220
     77 H30         0.5230   -5.5410   -2.1080 h1        1 MOL      0.179511
     78 H31         0.1430   -6.5720    0.1490 h1        1 MOL      0.004723
     79 H32         1.6890   -6.3870    1.6190 ho        1 MOL      0.404398
     80 H33         2.1090   -8.0650   -0.0390 hc        1 MOL      0.072140
     81 H34         0.9750   -8.1440   -1.3810 hc        1 MOL      0.072140
     82 H35         2.6140   -7.3220   -1.5270 hc        1 MOL      0.072140
     83 N9         -1.4250   -4.3600   -1.2480 n         1 MOL     -0.603759
     84 C26        -2.4610   -3.4210   -1.0920 c3        1 MOL     -0.049862
     85 C27        -3.1610   -3.5570    0.2500 c         1 MOL      0.288056
     86 O15        -3.4970   -4.6840    0.6420 o         1 MOL     -0.507099
     87 C28        -3.4370   -3.5330   -2.2500 c3        1 MOL      0.283162
     88 C29        -4.2620   -2.2110   -2.4360 c3        1 MOL      0.029394
     89 C30        -2.9510   -3.8980   -3.6700 c3        1 MOL     -0.384070
     90 C31        -5.5290   -2.1850   -3.2960 c3        1 MOL     -0.459624
     91 H36        -1.6550   -5.1070   -1.8860 hn        1 MOL      0.332586
     92 H37        -2.0270   -2.4230   -1.1730 h1        1 MOL      0.081255
     93 H38        -4.1360   -4.3590   -2.0960 hc        1 MOL     -0.009082
     94 H39        -3.4840   -1.5310   -2.7810 hc        1 MOL      0.020719
     95 H40        -4.6330   -1.8560   -1.4730 hc        1 MOL      0.020719
     96 H41        -2.1990   -3.2080   -4.0620 hc        1 MOL      0.090436
     97 H42        -2.5480   -4.9090   -3.5680 hc        1 MOL      0.090436
     98 H43        -3.8320   -3.9080   -4.3090 hc        1 MOL      0.090436
     99 H44        -5.2060   -2.3580   -4.3280 hc        1 MOL      0.114246
    100 H45        -6.1930   -3.0180   -3.0680 hc        1 MOL      0.114246
    101 H46        -5.8950   -1.1890   -3.0730 hc        1 MOL      0.114246
    102 N10        -3.4910   -2.4710    0.9040 n         1 MOL     -0.043402
    103 C32        -4.2960   -2.4050    2.1450 c3        1 MOL      0.057060
    104 C33        -5.5400   -1.5380    2.1500 c         1 MOL      0.432892
    105 O16        -6.4720   -1.7570    2.8710 o         1 MOL     -0.561026
    106 C34        -3.2980   -2.0430    3.3210 c3        1 MOL      0.011613
    107 C35        -2.2680   -3.0870    3.6750 c         1 MOL      0.651818
    108 O17        -2.6210   -4.1800    4.1660 o         1 MOL     -0.697600
    109 O18        -1.0780   -2.7100    3.5060 o         1 MOL     -0.697600
    110 H47        -3.1200   -1.6150    0.5240 hn        1 MOL     -0.093296
    111 H48        -4.6680   -3.3950    2.4090 h1        1 MOL      0.075327
    112 H49        -3.9760   -1.8520    4.1450 hc        1 MOL     -0.019995
    113 H50        -2.8120   -1.0970    3.0940 hc        1 MOL     -0.019995
    114 N11        -5.5460   -0.5050    1.3920 n         1 MOL     -0.568420
    115 C36        -6.7400    0.3570    1.2100 c3        1 MOL      0.514449
    116 C37        -6.4080    1.8070    0.6370 c         1 MOL      0.084369
    117 O19        -6.9240    2.2050   -0.4260 o         1 MOL     -0.406148
    118 C38        -7.5350   -0.5550    0.1380 c3        1 MOL     -0.337930
    119 C39        -8.9010   -0.0360   -0.2840 ca        1 MOL      0.052722
    120 C40        -9.6380    0.7550    0.6410 ca        1 MOL     -0.078587
    121 C41        -9.4650   -0.4140   -1.5070 ca        1 MOL     -0.078587
    122 C42       -10.9320    1.2230    0.2770 ca        1 MOL     -0.158657
    123 C43       -10.8140   -0.0550   -1.8240 ca        1 MOL     -0.158657
    124 C44       -11.5550    0.8320   -0.9320 ca        1 MOL     -0.158791
    125 H51        -4.7540   -0.2630    0.8000 hn        1 MOL      0.364576
    126 H52        -7.3240    0.4810    2.1270 h1        1 MOL      0.012864
    127 H53        -7.7830   -1.5290    0.5660 hc        1 MOL      0.138293
    128 H54        -7.0260   -0.6700   -0.8130 hc        1 MOL      0.138293
    129 H55        -9.2660    0.9340    1.6310 ha        1 MOL      0.083434
    130 H56        -8.9070   -1.0760   -2.1570 ha        1 MOL      0.083434
    131 H57       -11.4520    1.8360    0.9900 ha        1 MOL      0.110986
    132 H58       -11.2720   -0.2570   -2.7830 ha        1 MOL      0.110986
    133 H59       -12.4760    1.3130   -1.2140 ha        1 MOL      0.119643
    134 N12        -5.5760    2.5990    1.3760 n         1 MOL      0.006308
    135 C45        -5.2200    3.9290    0.9780 c3        1 MOL     -0.003335
    136 C46        -4.5710    4.1050   -0.4410 c         1 MOL      0.180572
    137 O20        -4.5950    5.2770   -0.8920 o         1 MOL     -0.495250
    138 C47        -4.3040    4.4240    2.0570 c3        1 MOL      0.052584
    139 C48        -4.7240    3.6250    3.2510 c3        1 MOL     -0.228935
    140 C49        -5.0020    2.3220    2.6590 c3        1 MOL     -0.034344
    141 H60        -6.1140    4.5610    0.9700 h1        1 MOL      0.083752
    142 H61        -3.2580    4.1830    1.8780 hc        1 MOL      0.037895
    143 H62        -4.2900    5.5000    2.2370 hc        1 MOL      0.037895
    144 H63        -3.9040    3.5040    3.9580 hc        1 MOL      0.067840
    145 H64        -5.6370    4.0540    3.6750 hc        1 MOL      0.067840
    146 H65        -4.0060    1.9090    2.5160 h1        1 MOL      0.071012
    147 H66        -5.5400    1.6730    3.3510 h1        1 MOL      0.071012
    148 N13        -3.9530    3.0800   -0.9970 n         1 MOL      0.165711
    149 C50        -3.2180    3.1120   -2.2960 c3        1 MOL     -0.212816
    150 C51        -4.1910    3.3010   -3.4900 c         1 MOL      0.531812
    151 O21        -3.9030    4.1240   -4.3460 o         1 MOL     -0.528727
    152 C52        -2.3870    1.8490   -2.4770 c3        1 MOL      0.048188
    153 C53        -1.5240    1.5270   -1.2020 c3        1 MOL     -0.196991
    154 C54        -2.1280    0.4330   -0.2680 c         1 MOL      0.648790
    155 O22        -1.4320   -0.3700    0.3360 o         1 MOL     -0.585827
    156 O23        -3.3670    0.4760   -0.1960 o         1 MOL     -0.585827
    157 H67        -3.7980    2.2810   -0.3990 hn        1 MOL      0.019859
    158 H68        -2.5160    3.9470   -2.3110 h1        1 MOL      0.109413
    159 H69        -1.7190    1.9610   -3.3330 hc        1 MOL      0.014472
    160 H70        -3.0450    0.9810   -2.5970 hc        1 MOL      0.014472
    161 H71        -1.3270    2.4070   -0.5960 hc        1 MOL      0.061005
    162 H72        -0.5760    1.1120   -1.5370 hc        1 MOL      0.061005
    163 N14        -5.3890    2.6720   -3.4460 n         1 MOL     -0.287711
    164 C55        -6.5170    3.1450   -4.2110 c3        1 MOL     -0.361364
    165 H73        -7.4370    2.7300   -3.7980 h1        1 MOL      0.136567
    166 H74        -6.5580    4.2340   -4.1650 h1        1 MOL      0.136567
    167 H75        -6.4110    2.8290   -5.2490 h1        1 MOL      0.136567
    168 H76        -5.5700    2.0090   -2.7020 hn        1 MOL      0.269819
    169 Ca1         0.2940   -1.2570    1.7770 Ca        1 MOL      1.698656
    170 O24         1.3310    1.2250    1.0470 oh        1 MOL     -0.818583
    171 H77         1.1630    1.7520    1.8270 ho        1 MOL      0.398263
    172 H78         2.2780    1.0980    1.0420 ho        1 MOL      0.398263
    173 O25        -0.8500    0.6750    3.1780 oh        1 MOL     -0.818583
    174 O26         1.9690   -3.2830    2.3490 oh        1 MOL     -0.818583
    175 H79        -1.3760    0.5920    3.9790 ho        1 MOL      0.398263
    176 H80         2.2110   -3.3750    3.2730 ho        1 MOL      0.398263
    177 H81        -0.6740    1.6120    3.1060 ho        1 MOL      0.398263
    178 H82         1.9430   -4.1800    2.0170 ho        1 MOL      0.398263
    179 O27         2.8510   -1.8330   -0.0700 oh        1 MOL     -0.818583
    180 H83         3.2260   -2.6540    0.2640 ho        1 MOL      0.398263
    181 H84         3.3980   -1.1490    0.3050 ho        1 MOL      0.398263
@<TRIPOS>BOND
     1    1    2 1   
     2    1    4 1   
     3    1    5 1   
     4    1    6 1   
     5    2    3 2   
     6    2    7 1   
     7    7    8 1   
     8    7   15 1   
     9    8    9 1   
    10    8   11 1   
    11    8   16 1   
    12    9   10 2   
    13    9   19 1   
    14   11   12 1   
    15   11   17 1   
    16   11   18 1   
    17   12   13 1   
    18   12   14 1   
    19   19   20 1   
    20   19   24 1   
    21   20   21 1   
    22   20   23 1   
    23   20   25 1   
    24   21   22 2   
    25   21   29 1   
    26   23   26 1   
    27   23   27 1   
    28   23   28 1   
    29   29   30 1   
    30   29   37 1   
    31   30   31 1   
    32   30   33 1   
    33   30   38 1   
    34   31   32 2   
    35   31   41 1   
    36   33   34 1   
    37   33   39 1   
    38   33   40 1   
    39   34   35 1   
    40   34   36 1   
    41   41   42 1   
    42   41   45 1   
    43   42   43 1   
    44   42   46 1   
    45   42   47 1   
    46   43   44 2   
    47   43   48 1   
    48   48   49 1   
    49   48   56 1   
    50   49   50 1   
    51   49   52 1   
    52   49   57 1   
    53   50   51 2   
    54   50   62 1   
    55   52   53 1   
    56   52   58 1   
    57   52   59 1   
    58   53   54 1   
    59   53   55 2   
    60   54   60 1   
    61   54   61 1   
    62   62   63 1   
    63   62   66 1   
    64   63   64 1   
    65   63   67 1   
    66   63   68 1   
    67   64   65 2   
    68   64   69 1   
    69   69   70 1   
    70   69   76 1   
    71   70   71 1   
    72   70   73 1   
    73   70   77 1   
    74   71   72 2   
    75   71   83 1   
    76   73   74 1   
    77   73   75 1   
    78   73   78 1   
    79   74   80 1   
    80   74   81 1   
    81   74   82 1   
    82   75   79 1   
    83   83   84 1   
    84   83   91 1   
    85   84   85 1   
    86   84   87 1   
    87   84   92 1   
    88   85   86 2   
    89   85  102 1   
    90   87   88 1   
    91   87   89 1   
    92   87   93 1   
    93   88   90 1   
    94   88   94 1   
    95   88   95 1   
    96   89   96 1   
    97   89   97 1   
    98   89   98 1   
    99   90   99 1   
   100   90  100 1   
   101   90  101 1   
   102  102  103 1   
   103  102  110 1   
   104  103  104 1   
   105  103  106 1   
   106  103  111 1   
   107  104  105 2   
   108  104  114 1   
   109  106  107 1   
   110  106  112 1   
   111  106  113 1   
   112  107  108 1   
   113  107  109 1   
   114  114  115 1   
   115  114  125 1   
   116  115  116 1   
   117  115  118 1   
   118  115  126 1   
   119  116  117 2   
   120  116  134 1   
   121  118  119 1   
   122  118  127 1   
   123  118  128 1   
   124  119  120 ar  
   125  119  121 ar  
   126  120  122 ar  
   127  120  129 1   
   128  121  123 ar  
   129  121  130 1   
   130  122  124 ar  
   131  122  131 1   
   132  123  124 ar  
   133  123  132 1   
   134  124  133 1   
   135  134  135 1   
   136  134  140 1   
   137  135  136 1   
   138  135  138 1   
   139  135  141 1   
   140  136  137 2   
   141  136  148 1   
   142  138  139 1   
   143  138  142 1   
   144  138  143 1   
   145  139  140 1   
   146  139  144 1   
   147  139  145 1   
   148  140  146 1   
   149  140  147 1   
   150  148  149 1   
   151  148  157 1   
   152  149  150 1   
   153  149  152 1   
   154  149  158 1   
   155  150  151 2   
   156  150  163 1   
   157  152  153 1   
   158  152  159 1   
   159  152  160 1   
   160  153  154 1   
   161  153  161 1   
   162  153  162 1   
   163  154  155 1   
   164  154  156 1   
   165  163  164 1   
   166  163  168 1   
   167  164  165 1   
   168  164  166 1   
   169  164  167 1   
   170  170  171 1   
   171  170  172 1   
   172  173  175 1   
   173  173  177 1   
   174  174  176 1   
   175  174  178 1   
   176  179  180 1   
   177  179  181 1   
@<TRIPOS>SUBSTRUCTURE
     1 MOL         1 TEMP              0 ****  ****    0 ROOT
