@<TRIPOS>MOLECULE
MOL
  185   180     1     0     0
SMALL
resp


@<TRIPOS>ATOM
      1 C1          5.6750    0.0360    4.6320 c3        1 MOL     -0.423272
      2 C2          5.9230    0.2190    3.1210 c         1 MOL      0.706280
      3 O1          5.1300   -0.3800    2.3890 o         1 MOL     -0.569408
      4 H1          6.0210   -0.9510    4.9410 hc        1 MOL      0.112990
      5 H2          6.2200    0.8020    5.1850 hc        1 MOL      0.112990
      6 H3          4.6080    0.1280    4.8400 hc        1 MOL      0.112990
      7 N1          6.8860    1.1030    2.7590 n         1 MOL     -0.598873
      8 C3          7.0840    1.7220    1.4290 c3        1 MOL      0.120497
      9 C4          7.2620    0.8470    0.1320 c         1 MOL      0.523803
     10 O2          7.0730    1.2820   -0.9630 o         1 MOL     -0.522222
     11 C5          6.0830    2.9080    1.1360 c3        1 MOL     -0.210209
     12 C6          5.8200    3.7150    2.3920 c         1 MOL      0.843916
     13 O3          4.7270    3.6120    2.9680 o         1 MOL     -0.694439
     14 O4          6.7500    4.4390    2.8390 o         1 MOL     -0.694439
     15 H4          7.4830    1.4320    3.4930 hn        1 MOL      0.327106
     16 H5          8.0730    2.1600    1.5200 h1        1 MOL      0.055053
     17 H6          5.1340    2.5690    0.7220 hc        1 MOL      0.060823
     18 H7          6.5330    3.6380    0.4660 hc        1 MOL      0.060823
     19 N2          7.6090   -0.4100    0.2840 n         1 MOL     -0.449379
     20 C7          7.7630   -1.2850   -0.9170 c3        1 MOL      0.099172
     21 C8          6.4360   -1.7290   -1.5600 c         1 MOL      0.638079
     22 O5          6.4050   -2.2870   -2.6160 o         1 MOL     -0.575830
     23 C9          8.6730   -2.4600   -0.4760 c3        1 MOL     -0.278532
     24 C10         7.9060   -3.6520    0.2060 c3        1 MOL      0.153404
     25 C11         8.8740   -4.6090    0.8270 c3        1 MOL     -0.080208
     26 C12         8.2040   -5.7570    1.6020 c3        1 MOL     -0.144099
     27 N3          7.4670   -5.4650    2.9250 n4        1 MOL     -0.375703
     28 H8          7.8480   -0.7630    1.2070 hn        1 MOL      0.215670
     29 H9          8.2570   -0.7600   -1.7310 h1        1 MOL      0.108042
     30 H10         9.3360   -2.0770    0.3070 hc        1 MOL      0.084297
     31 H11         9.2130   -2.8210   -1.3510 hc        1 MOL      0.084297
     32 H12         7.2750   -4.0780   -0.5730 hc        1 MOL     -0.021622
     33 H13         7.1750   -3.2390    0.9000 hc        1 MOL     -0.021622
     34 H14         9.6300   -4.0750    1.3940 hc        1 MOL      0.076718
     35 H15         9.4950   -5.0800    0.0540 hc        1 MOL      0.076718
     36 H16         8.8460   -6.6350    1.6840 hx        1 MOL      0.136264
     37 H17         7.4610   -5.9810    0.8340 hx        1 MOL      0.136264
     38 H18         8.0100   -4.8420    3.5000 hn        1 MOL      0.289146
     39 H19         6.6370   -4.9070    2.7750 hn        1 MOL      0.289146
     40 H20         7.2930   -6.3440    3.3770 hn        1 MOL      0.289146
     41 N4          5.2890   -1.5020   -0.8740 n         1 MOL     -0.466127
     42 C13         4.0670   -2.1190   -1.2790 c3        1 MOL     -0.127406
     43 C14         3.4410   -1.3740   -2.4470 c         1 MOL      0.610137
     44 O6          3.3610   -0.1370   -2.5350 o         1 MOL     -0.446018
     45 C15         3.1550   -2.0800   -0.0670 c3        1 MOL     -0.062005
     46 C16         1.9390   -2.9740   -0.2410 c         1 MOL      0.600799
     47 O7          1.7030   -3.4830   -1.3160 o         1 MOL     -0.705862
     48 O8          1.1270   -3.1220    0.7380 o         1 MOL     -0.705862
     49 H21         5.2240   -0.9630   -0.0200 hn        1 MOL      0.279320
     50 H22         4.3050   -3.1490   -1.5750 h1        1 MOL      0.070928
     51 H23         2.9160   -1.0560    0.2170 hc        1 MOL      0.071286
     52 H24         3.7020   -2.4450    0.8040 hc        1 MOL      0.071286
     53 N5          2.9620   -2.1050   -3.4560 n         1 MOL     -0.359200
     54 C17         2.2050   -1.5590   -4.5880 c3        1 MOL     -0.123290
     55 C18         1.0360   -0.6900   -4.2020 c         1 MOL      0.542891
     56 O9          0.7250    0.3100   -4.8670 o         1 MOL     -0.531385
     57 H25         2.8820   -3.0950   -3.2760 hn        1 MOL      0.260481
     58 H26         1.8070   -2.3150   -5.2670 h1        1 MOL      0.093441
     59 H27         2.8410   -0.9110   -5.1990 h1        1 MOL      0.093441
     60 N6          0.4210   -0.9970   -3.0830 n         1 MOL     -0.509143
     61 C19        -0.6410   -0.2440   -2.5050 c3        1 MOL      0.012568
     62 C20        -0.1120    1.1600   -2.0940 c         1 MOL      0.594249
     63 O10        -0.9910    2.0090   -1.9860 o         1 MOL     -0.559449
     64 C21        -1.1710   -0.9850   -1.3010 c3        1 MOL     -0.277229
     65 C22        -1.6700   -2.3640   -1.6460 c         1 MOL      0.754680
     66 N7         -2.3980   -2.6450   -2.7350 n         1 MOL     -0.792569
     67 O11        -1.2770   -3.2770   -0.9250 o         1 MOL     -0.603725
     68 H28         0.8150   -1.7180   -2.5090 hn        1 MOL      0.321168
     69 H29        -1.4740   -0.0860   -3.1960 h1        1 MOL      0.087709
     70 H30        -1.9860   -0.4120   -0.8610 hc        1 MOL      0.130695
     71 H31        -0.3410   -1.0270   -0.5900 hc        1 MOL      0.130695
     72 H32        -2.7510   -1.9220   -3.3520 hn        1 MOL      0.356939
     73 H33        -2.6070   -3.5720   -3.0610 hn        1 MOL      0.356939
     74 N8          1.2260    1.4100   -2.0130 n         1 MOL     -0.397252
     75 C23         1.7950    2.7730   -1.8360 c3        1 MOL      0.078184
     76 C24         1.1980    3.5290   -0.6620 c         1 MOL      0.535999
     77 O12         1.2340    3.0450    0.4550 o         1 MOL     -0.518457
     78 H34         1.8620    0.6610   -2.2440 hn        1 MOL      0.239487
     79 H35         1.6800    3.3000   -2.7820 h1        1 MOL      0.044970
     80 H36         2.8550    2.7170   -1.6040 h1        1 MOL      0.044970
     81 N9          0.6580    4.7340   -0.9090 n         1 MOL     -0.525807
     82 C25        -0.2500    5.5560   -0.0690 c3        1 MOL      0.193304
     83 C26        -1.5270    4.8770    0.5080 c         1 MOL      0.334392
     84 O13        -2.5300    5.5740    0.5470 o         1 MOL     -0.528350
     85 C27         0.5530    6.1740    1.0820 c3        1 MOL     -0.363414
     86 C28         1.8500    6.8240    0.5920 ca        1 MOL      0.035172
     87 C29         1.6910    7.9540   -0.1860 ca        1 MOL     -0.064106
     88 C30         3.0730    6.1580    0.7990 ca        1 MOL     -0.064106
     89 C31         2.8550    8.5680   -0.7490 ca        1 MOL     -0.365483
     90 C32         4.2250    6.8080    0.2970 ca        1 MOL     -0.365483
     91 C33         4.0980    8.0150   -0.4730 ca        1 MOL      0.433986
     92 O14         5.2460    8.5340   -1.0260 oh        1 MOL     -0.563976
     93 H37         0.7380    4.9680   -1.8840 hn        1 MOL      0.281685
     94 H38        -0.5750    6.3930   -0.6980 h1        1 MOL      0.072439
     95 H39         0.8610    5.4770    1.8540 hc        1 MOL      0.138659
     96 H40        -0.0390    6.8950    1.6370 hc        1 MOL      0.138659
     97 H41         0.7010    8.3790   -0.3010 ha        1 MOL      0.118504
     98 H42         3.1400    5.2140    1.3250 ha        1 MOL      0.118504
     99 H43         2.8150    9.4210   -1.4120 ha        1 MOL      0.167160
    100 H44         5.1870    6.3120    0.3710 ha        1 MOL      0.167160
    101 H45         6.0100    8.0200   -0.7620 ho        1 MOL      0.403097
    102 N10        -1.4900    3.6550    0.9550 n         1 MOL     -0.039048
    103 C34        -2.6580    2.8030    1.3300 c3        1 MOL     -0.191580
    104 C35        -3.6620    2.5080    0.1070 c         1 MOL      0.134935
    105 O15        -4.2690    1.4390    0.0020 o         1 MOL     -0.324742
    106 C36        -3.3250    3.2290    2.6370 c3        1 MOL      0.216213
    107 C37        -2.5250    3.1420    3.9540 c3        1 MOL     -0.275328
    108 C38        -4.5770    2.4540    2.9360 c3        1 MOL     -0.319984
    109 C39        -1.1900    3.8930    3.9670 c3        1 MOL     -0.027196
    110 H46        -0.6190    3.1330    0.9090 hn        1 MOL      0.220326
    111 H47        -2.2450    1.8140    1.5410 h1        1 MOL      0.142496
    112 H48        -3.4720    4.3060    2.5400 hc        1 MOL      0.018089
    113 H49        -2.3480    2.1040    4.2290 hc        1 MOL      0.084868
    114 H50        -3.1490    3.5970    4.7190 hc        1 MOL      0.084868
    115 H51        -4.4440    1.3880    3.1320 hc        1 MOL      0.085352
    116 H52        -4.9560    2.8980    3.8580 hc        1 MOL      0.085352
    117 H53        -5.3730    2.6990    2.2310 hc        1 MOL      0.085352
    118 H54        -1.3090    4.9630    3.7840 hc        1 MOL      0.027503
    119 H55        -0.7210    3.8800    4.9530 hc        1 MOL      0.027503
    120 H56        -0.5420    3.4750    3.1980 hc        1 MOL      0.027503
    121 N11        -3.9330    3.5490   -0.7250 n         1 MOL      0.049247
    122 C40        -4.7720    3.5780   -1.9300 c3        1 MOL     -0.288696
    123 C41        -6.2130    3.0010   -1.7590 c         1 MOL      0.584089
    124 O16        -6.7040    2.4250   -2.7030 o         1 MOL     -0.543744
    125 C42        -4.8800    5.0090   -2.3950 c3        1 MOL      0.127338
    126 O17        -5.3720    5.9590   -1.4600 oh        1 MOL     -0.532890
    127 H57        -3.4550    4.4050   -0.4980 hn        1 MOL      0.147034
    128 H58        -4.2450    3.0190   -2.7020 h1        1 MOL      0.132260
    129 H59        -5.4150    5.0960   -3.3460 h1        1 MOL      0.066882
    130 H60        -3.8390    5.2750   -2.5360 h1        1 MOL      0.066882
    131 H61        -5.2070    5.5440   -0.6060 ho        1 MOL      0.332005
    132 N12        -6.7660    3.0040   -0.5720 n         1 MOL     -0.498246
    133 C43        -7.9170    2.2730   -0.0680 c3        1 MOL      0.527624
    134 C44        -8.1310    0.7790   -0.4750 c         1 MOL      0.294946
    135 O18        -9.2370    0.3650   -0.7420 o         1 MOL     -0.489581
    136 C45        -9.1550    3.1300   -0.2310 c3        1 MOL     -0.306537
    137 H62        -6.3310    3.6560    0.0640 hn        1 MOL      0.245731
    138 H63        -7.8240    2.2250    1.0210 h1        1 MOL     -0.040541
    139 H64        -9.4970    3.1420   -1.2610 hc        1 MOL      0.064483
    140 H65        -9.9960    2.7410    0.3410 hc        1 MOL      0.064483
    141 H66        -8.8680    4.1230    0.1300 hc        1 MOL      0.064483
    142 N13        -6.9640    0.0710   -0.5790 n         1 MOL     -0.129187
    143 C46        -6.9140   -1.3900   -0.6690 c3        1 MOL      0.090952
    144 C47        -6.5840   -2.1270    0.6400 c         1 MOL      0.406368
    145 O19        -6.0430   -1.5330    1.5580 o         1 MOL     -0.422675
    146 C48        -5.7140   -1.6640   -1.6580 c3        1 MOL      0.046170
    147 H67        -6.1230    0.4610   -0.1950 hn        1 MOL      0.001022
    148 H68        -7.8030   -1.8090   -1.1560 h1        1 MOL      0.038379
    149 H69        -6.0110   -1.5050   -2.6940 hc        1 MOL     -0.002849
    150 H70        -4.8970   -0.9610   -1.4680 hc        1 MOL     -0.002849
    151 H71        -5.3650   -2.6870   -1.5470 hc        1 MOL     -0.002849
    152 N14        -6.9130   -3.4120    0.6780 n         1 MOL     -0.491338
    153 C49        -6.3910   -4.3160    1.6860 c3        1 MOL      0.083795
    154 C50        -6.8460   -3.8900    3.1530 c         1 MOL      0.311227
    155 O20        -6.0570   -3.9690    4.0590 o         1 MOL     -0.449186
    156 C51        -4.8880   -4.4780    1.5200 c3        1 MOL      0.013811
    157 C52        -4.5400   -5.1290    0.1410 c3        1 MOL     -0.175891
    158 C53        -3.1240   -5.6500    0.1320 c         1 MOL      0.829914
    159 O21        -2.3310   -5.3610    1.0070 o         1 MOL     -0.818295
    160 O22        -2.6840   -6.1960   -0.9300 o         1 MOL     -0.818295
    161 H72        -7.4240   -3.7700   -0.1070 hn        1 MOL      0.291126
    162 H73        -6.8900   -5.2710    1.5030 h1        1 MOL      0.045944
    163 H74        -4.5630   -5.1570    2.3140 hc        1 MOL      0.063598
    164 H75        -4.3180   -3.5480    1.6500 hc        1 MOL      0.063598
    165 H76        -4.5990   -4.4170   -0.6870 hc        1 MOL      0.021586
    166 H77        -5.1810   -5.9740   -0.1100 hc        1 MOL      0.021586
    167 N15        -8.0490   -3.3200    3.3520 n         1 MOL     -0.243571
    168 C54        -8.3370   -2.5580    4.5290 c3        1 MOL     -0.147951
    169 H78        -7.8070   -1.6070    4.4850 h1        1 MOL      0.086484
    170 H79        -9.4100   -2.3740    4.5880 h1        1 MOL      0.086484
    171 H80        -8.0150   -3.1130    5.4100 h1        1 MOL      0.086484
    172 H81        -8.6810   -3.3600    2.5740 hn        1 MOL      0.225317
    173 Ca1        -0.0890   -5.5240   -0.2180 Ca        1 MOL      1.791543
    174 O23         2.0400   -6.7930   -1.0140 oh        1 MOL     -0.840900
    175 H82         2.1390   -7.6560   -1.4230 ho        1 MOL      0.414919
    176 H83         2.9040   -6.6110   -0.6350 ho        1 MOL      0.414919
    177 O24        -0.2740   -8.1310    0.2680 oh        1 MOL     -0.840900
    178 H84        -0.9460   -8.7170   -0.0840 ho        1 MOL      0.414919
    179 H85         0.4910   -8.6930    0.3980 ho        1 MOL      0.414919
    180 O25        -0.1820   -5.9030   -2.8290 oh        1 MOL     -0.840900
    181 H86        -0.1940   -6.7350   -3.3070 ho        1 MOL      0.414919
    182 H87        -0.3770   -5.2390   -3.4920 ho        1 MOL      0.414919
    183 O26         1.3480   -5.9660    1.9060 oh        1 MOL     -0.840900
    184 H88         1.8220   -5.3800    2.5030 ho        1 MOL      0.414919
    185 H89         1.3650   -6.8210    2.3310 ho        1 MOL      0.414919
@<TRIPOS>BOND
     1    1    2 1   
     2    1    4 1   
     3    1    5 1   
     4    1    6 1   
     5    2    3 2   
     6    2    7 1   
     7    7    8 1   
     8    7   15 1   
     9    8    9 1   
    10    8   11 1   
    11    8   16 1   
    12    9   10 2   
    13    9   19 1   
    14   11   12 1   
    15   11   17 1   
    16   11   18 1   
    17   12   13 1   
    18   12   14 1   
    19   19   20 1   
    20   19   28 1   
    21   20   21 1   
    22   20   23 1   
    23   20   29 1   
    24   21   22 2   
    25   21   41 1   
    26   23   24 1   
    27   23   30 1   
    28   23   31 1   
    29   24   25 1   
    30   24   32 1   
    31   24   33 1   
    32   25   26 1   
    33   25   34 1   
    34   25   35 1   
    35   26   27 1   
    36   26   36 1   
    37   26   37 1   
    38   27   38 1   
    39   27   39 1   
    40   27   40 1   
    41   41   42 1   
    42   41   49 1   
    43   42   43 1   
    44   42   45 1   
    45   42   50 1   
    46   43   44 2   
    47   43   53 1   
    48   45   46 1   
    49   45   51 1   
    50   45   52 1   
    51   46   47 1   
    52   46   48 1   
    53   53   54 1   
    54   53   57 1   
    55   54   55 1   
    56   54   58 1   
    57   54   59 1   
    58   55   56 2   
    59   55   60 1   
    60   60   61 1   
    61   60   68 1   
    62   61   62 1   
    63   61   64 1   
    64   61   69 1   
    65   62   63 2   
    66   62   74 1   
    67   64   65 1   
    68   64   70 1   
    69   64   71 1   
    70   65   66 1   
    71   65   67 2   
    72   66   72 1   
    73   66   73 1   
    74   74   75 1   
    75   74   78 1   
    76   75   76 1   
    77   75   79 1   
    78   75   80 1   
    79   76   77 2   
    80   76   81 1   
    81   81   82 1   
    82   81   93 1   
    83   82   83 1   
    84   82   85 1   
    85   82   94 1   
    86   83   84 2   
    87   83  102 1   
    88   85   86 1   
    89   85   95 1   
    90   85   96 1   
    91   86   87 ar  
    92   86   88 ar  
    93   87   89 ar  
    94   87   97 1   
    95   88   90 ar  
    96   88   98 1   
    97   89   91 ar  
    98   89   99 1   
    99   90   91 ar  
   100   90  100 1   
   101   91   92 1   
   102   92  101 1   
   103  102  103 1   
   104  102  110 1   
   105  103  104 1   
   106  103  106 1   
   107  103  111 1   
   108  104  105 2   
   109  104  121 1   
   110  106  107 1   
   111  106  108 1   
   112  106  112 1   
   113  107  109 1   
   114  107  113 1   
   115  107  114 1   
   116  108  115 1   
   117  108  116 1   
   118  108  117 1   
   119  109  118 1   
   120  109  119 1   
   121  109  120 1   
   122  121  122 1   
   123  121  127 1   
   124  122  123 1   
   125  122  125 1   
   126  122  128 1   
   127  123  124 2   
   128  123  132 1   
   129  125  126 1   
   130  125  129 1   
   131  125  130 1   
   132  126  131 1   
   133  132  133 1   
   134  132  137 1   
   135  133  134 1   
   136  133  136 1   
   137  133  138 1   
   138  134  135 2   
   139  134  142 1   
   140  136  139 1   
   141  136  140 1   
   142  136  141 1   
   143  142  143 1   
   144  142  147 1   
   145  143  144 1   
   146  143  146 1   
   147  143  148 1   
   148  144  145 2   
   149  144  152 1   
   150  146  149 1   
   151  146  150 1   
   152  146  151 1   
   153  152  153 1   
   154  152  161 1   
   155  153  154 1   
   156  153  156 1   
   157  153  162 1   
   158  154  155 2   
   159  154  167 1   
   160  156  157 1   
   161  156  163 1   
   162  156  164 1   
   163  157  158 1   
   164  157  165 1   
   165  157  166 1   
   166  158  159 1   
   167  158  160 1   
   168  167  168 1   
   169  167  172 1   
   170  168  169 1   
   171  168  170 1   
   172  168  171 1   
   173  174  175 1   
   174  174  176 1   
   175  177  178 1   
   176  177  179 1   
   177  180  181 1   
   178  180  182 1   
   179  183  184 1   
   180  183  185 1   
@<TRIPOS>SUBSTRUCTURE
     1 MOL         1 TEMP              0 ****  ****    0 ROOT
