@<TRIPOS>MOLECULE
MOL
  175   173     1     0     0
SMALL
resp


@<TRIPOS>ATOM
      1 C1         -5.8510    8.2160    2.1500 c3        1 MOL     -0.356318
      2 C2         -6.5710    7.5220    1.0200 c         1 MOL      0.650032
      3 O1         -6.5870    8.0360   -0.1270 o         1 MOL     -0.576812
      4 H1         -5.4060    7.4710    2.8090 hc        1 MOL      0.086675
      5 H2         -5.0680    8.8550    1.7440 hc        1 MOL      0.086675
      6 H3         -6.5590    8.8220    2.7150 hc        1 MOL      0.086675
      7 N1         -7.2500    6.3710    1.2670 n         1 MOL     -0.482000
      8 C3         -8.0140    5.7420    0.1150 c3        1 MOL      0.107968
      9 C4         -7.2030    4.7890   -0.7300 c         1 MOL      0.514710
     10 O2         -7.6380    4.5190   -1.8810 o         1 MOL     -0.544393
     11 C5         -9.1990    4.9350    0.7160 c3        1 MOL     -0.117807
     12 C6        -10.4270    4.5230   -0.1180 c         1 MOL      0.713386
     13 O3        -10.7880    3.3130   -0.1310 o         1 MOL     -0.730082
     14 O4        -11.0310    5.4360   -0.7010 o         1 MOL     -0.730082
     15 H4         -7.1530    5.9670    2.1940 hn        1 MOL      0.276241
     16 H5         -8.3940    6.5900   -0.4480 h1        1 MOL      0.080185
     17 H6         -9.5030    5.4180    1.6410 hc        1 MOL     -0.021908
     18 H7         -8.7130    3.9850    0.9490 hc        1 MOL     -0.021908
     19 N2         -6.0760    4.3120   -0.2430 n         1 MOL     -0.463063
     20 C7         -5.1720    3.4670   -0.9760 c3        1 MOL      0.323605
     21 C8         -4.4300    2.5090    0.0250 c         1 MOL      0.444217
     22 O5         -3.8340    3.0320    0.9820 o         1 MOL     -0.527316
     23 C9         -4.1160    4.4060   -1.6930 c3        1 MOL     -0.367291
     24 H8         -5.8270    4.6550    0.6760 hn        1 MOL      0.226450
     25 H9         -5.7430    2.9510   -1.7560 h1        1 MOL      0.044962
     26 H10        -3.5040    3.8070   -2.3690 hc        1 MOL      0.100038
     27 H11        -4.6960    4.9810   -2.4070 hc        1 MOL      0.100038
     28 H12        -3.4120    4.9700   -1.0740 hc        1 MOL      0.100038
     29 N3         -4.3850    1.1600   -0.1500 n         1 MOL     -0.307446
     30 C10        -5.1220    0.4650   -1.2000 c3        1 MOL     -0.284863
     31 C11        -5.6550   -0.8720   -0.7530 c         1 MOL      0.688502
     32 O6         -5.2100   -1.3930    0.3090 o         1 MOL     -0.563949
     33 C12        -4.2640    0.3960   -2.4620 c3        1 MOL     -0.061027
     34 C13        -2.8630   -0.3200   -2.3970 c         1 MOL      0.691114
     35 O7         -2.7920   -1.5650   -2.2580 o         1 MOL     -0.720977
     36 O8         -1.8300    0.3470   -2.5320 o         1 MOL     -0.720977
     37 H13        -3.9150    0.6780    0.6010 hn        1 MOL      0.249988
     38 H14        -6.0190    1.0210   -1.4930 h1        1 MOL      0.121783
     39 H15        -4.1650    1.3590   -2.9480 hc        1 MOL      0.026833
     40 H16        -4.8250   -0.2170   -3.1700 hc        1 MOL      0.026833
     41 N4         -6.5070   -1.5980   -1.5040 n         1 MOL     -0.480917
     42 C14        -7.1430   -2.8290   -1.0010 c3        1 MOL      0.127392
     43 C15        -6.9600   -4.0420   -1.9430 c         1 MOL      0.498568
     44 O9         -7.9460   -4.4480   -2.5540 o         1 MOL     -0.557611
     45 H17        -6.6930   -1.3380   -2.4590 hn        1 MOL      0.323218
     46 H18        -8.2150   -2.6370   -0.9680 h1        1 MOL      0.029941
     47 H19        -6.7290   -3.0650   -0.0220 h1        1 MOL      0.029941
     48 N5         -5.8150   -4.7280   -1.9650 n         1 MOL     -0.434784
     49 C16        -4.5100   -4.3610   -1.4050 c3        1 MOL      0.106296
     50 C17        -4.3930   -5.0540   -0.0210 c         1 MOL      0.444370
     51 O10        -4.4830   -6.2730    0.1010 o         1 MOL     -0.524900
     52 C18        -3.3930   -4.6960   -2.4260 c3        1 MOL     -0.140481
     53 C19        -2.0030   -4.4040   -1.8590 c         1 MOL      0.602011
     54 N6         -1.0140   -4.4350   -2.6910 n         1 MOL     -0.811400
     55 O11        -1.8090   -3.9670   -0.7280 o         1 MOL     -0.406712
     56 H20        -5.8530   -5.5860   -2.4980 hn        1 MOL      0.288589
     57 H21        -4.4830   -3.2740   -1.2830 h1        1 MOL      0.032832
     58 H22        -3.7100   -4.1880   -3.3380 hc        1 MOL      0.051426
     59 H23        -3.4240   -5.7660   -2.6420 hc        1 MOL      0.051426
     60 H24        -1.0750   -4.9100   -3.5830 hn        1 MOL      0.359587
     61 H25        -0.0910   -4.2090   -2.3680 hn        1 MOL      0.359587
     62 N7         -4.2400   -4.2640    1.0890 n         1 MOL     -0.142965
     63 C20        -4.1180   -4.7040    2.4560 c3        1 MOL     -0.283048
     64 C21        -2.6680   -5.0000    3.0150 c         1 MOL      0.549522
     65 O12        -2.4920   -5.5850    4.0960 o         1 MOL     -0.561729
     66 H26        -4.1820   -3.2690    0.9300 hn        1 MOL      0.201867
     67 H27        -4.5850   -5.6940    2.5630 h1        1 MOL      0.117721
     68 H28        -4.6270   -4.0840    3.1960 h1        1 MOL      0.117721
     69 N8         -1.6610   -4.5180    2.2790 n         1 MOL     -0.262490
     70 C22        -0.2580   -4.6930    2.5940 c3        1 MOL     -0.121164
     71 C23         0.5210   -3.4790    2.1920 c         1 MOL      0.327272
     72 O13         0.1590   -2.8270    1.2210 o         1 MOL     -0.572768
     73 C24         0.4060   -5.9020    1.9080 c3        1 MOL      0.588318
     74 C25        -0.2680   -7.2410    2.3480 c3        1 MOL     -0.603526
     75 O14         0.2480   -5.9850    0.5420 oh        1 MOL     -0.617468
     76 H29        -1.8470   -4.2580    1.3250 hn        1 MOL      0.098335
     77 H30        -0.0580   -4.8490    3.6540 h1        1 MOL      0.069895
     78 H31         1.4510   -5.7730    2.1590 h1        1 MOL     -0.083122
     79 H32         0.5780   -5.1270    0.2500 ho        1 MOL      0.419001
     80 H33         0.1010   -8.0810    1.7640 hc        1 MOL      0.151933
     81 H34        -0.1430   -7.3490    3.4310 hc        1 MOL      0.151933
     82 H35        -1.3460   -7.0740    2.2400 hc        1 MOL      0.151933
     83 N9          1.6330   -3.2340    2.8680 n         1 MOL     -0.068040
     84 C26         2.5660   -2.1970    2.4430 c3        1 MOL     -0.068678
     85 C27         3.6100   -2.6880    1.4570 c         1 MOL      0.352171
     86 O15         4.2360   -3.6790    1.7320 o         1 MOL     -0.527802
     87 C28         3.1110   -1.6060    3.7010 c3        1 MOL     -0.061143
     88 C29         4.4190   -0.7730    3.4080 c3        1 MOL      0.392613
     89 C30         1.9450   -0.8870    4.4180 c3        1 MOL     -0.233843
     90 C31         5.0090   -0.2090    4.6420 c3        1 MOL     -0.461457
     91 H36         1.8650   -3.8200    3.6520 hn        1 MOL      0.195636
     92 H37         1.9790   -1.3960    1.9820 h1        1 MOL      0.109048
     93 H38         3.4510   -2.4110    4.3430 hc        1 MOL      0.032892
     94 H39         4.2270    0.0230    2.6880 hc        1 MOL     -0.050310
     95 H40         5.1840   -1.4260    2.9840 hc        1 MOL     -0.050310
     96 H41         1.3720   -0.2160    3.7810 hc        1 MOL      0.060516
     97 H42         1.2720   -1.6240    4.8540 hc        1 MOL      0.060516
     98 H43         2.3150   -0.3450    5.2950 hc        1 MOL      0.060516
     99 H44         6.0470    0.0450    4.4220 hc        1 MOL      0.091997
    100 H45         4.5100    0.7110    4.9310 hc        1 MOL      0.091997
    101 H46         5.1160   -0.9860    5.3920 hc        1 MOL      0.091997
    102 N10         3.7410   -2.0670    0.2740 n         1 MOL     -0.308768
    103 C32         4.3700   -2.7550   -0.8780 c3        1 MOL      0.111863
    104 C33         5.4850   -1.9250   -1.4930 c         1 MOL      0.568725
    105 O16         6.1010   -2.4410   -2.3980 o         1 MOL     -0.572084
    106 C34         3.4330   -3.3010   -1.9470 c3        1 MOL     -0.249997
    107 C35         2.2860   -4.1070   -1.3200 c         1 MOL      0.784931
    108 O17         2.5110   -5.2890   -1.0350 o         1 MOL     -0.667344
    109 O18         1.1680   -3.5650   -1.2640 o         1 MOL     -0.667344
    110 H47         3.1410   -1.2760    0.0940 hn        1 MOL      0.229854
    111 H48         4.8420   -3.6670   -0.5090 h1        1 MOL      0.093982
    112 H49         3.9300   -4.0450   -2.5730 hc        1 MOL      0.033170
    113 H50         3.0320   -2.4520   -2.4970 hc        1 MOL      0.033170
    114 N11         5.9130   -0.8450   -0.8840 n         1 MOL     -0.491282
    115 C36         6.7890    0.2360   -1.3790 c3        1 MOL      0.158653
    116 C37         6.6210    1.5700   -0.5870 c         1 MOL      0.456210
    117 O19         6.4900    1.5090    0.6260 o         1 MOL     -0.536089
    118 C38         8.1930   -0.3030   -1.2590 c3        1 MOL     -0.135564
    119 C39         9.2740    0.7800   -1.5710 ca        1 MOL     -0.072175
    120 C40         9.7510    1.6410   -0.5420 ca        1 MOL     -0.061202
    121 C41         9.7270    0.9800   -2.8840 ca        1 MOL     -0.061202
    122 C42        10.5950    2.6630   -0.8540 ca        1 MOL     -0.186017
    123 C43        10.7480    1.8650   -3.1620 ca        1 MOL     -0.186017
    124 C44        11.0820    2.7510   -2.1260 ca        1 MOL     -0.003096
    125 H51         5.3420   -0.5080   -0.1230 hn        1 MOL      0.194495
    126 H52         6.4920    0.3260   -2.4240 h1        1 MOL      0.046406
    127 H53         8.3880   -1.1280   -1.9460 hc        1 MOL      0.105105
    128 H54         8.3430   -0.6890   -0.2510 hc        1 MOL      0.105105
    129 H55         9.3240    1.6230    0.4500 ha        1 MOL      0.107017
    130 H56         9.3860    0.3140   -3.6570 ha        1 MOL      0.107017
    131 H57        10.9250    3.3130   -0.0560 ha        1 MOL      0.121272
    132 H58        10.9980    2.0380   -4.2010 ha        1 MOL      0.121272
    133 H59        11.8230    3.5180   -2.3340 ha        1 MOL      0.061744
    134 N12         6.4890    2.7800   -1.1500 n         1 MOL     -0.173427
    135 C45         6.6140    4.1000   -0.4780 c3        1 MOL     -0.053338
    136 C46         5.2570    4.6250    0.2590 c         1 MOL      0.550457
    137 O20         5.1290    5.7290    0.6480 o         1 MOL     -0.523165
    138 C47         7.3120    5.0260   -1.4720 c3        1 MOL     -0.065807
    139 C48         7.5570    4.2320   -2.7600 c3        1 MOL      0.032418
    140 C49         6.7710    2.9330   -2.5570 c3        1 MOL      0.037906
    141 H60         7.3670    3.8890    0.2800 h1        1 MOL      0.084153
    142 H61         6.7250    5.9260   -1.6580 hc        1 MOL      0.042391
    143 H62         8.2980    5.3400   -1.1310 hc        1 MOL      0.042391
    144 H63         7.0450    4.7100   -3.5960 hc        1 MOL      0.000381
    145 H64         8.6130    4.0330   -2.9480 hc        1 MOL      0.000381
    146 H65         5.8270    3.0260   -3.1020 h1        1 MOL      0.022818
    147 H66         7.2630    2.0880   -3.0450 h1        1 MOL      0.022818
    148 N13         4.1850    3.7950    0.2660 n         1 MOL     -0.259605
    149 C50         2.9020    4.1920    0.9570 c3        1 MOL     -0.302999
    150 C51         2.9530    4.4900    2.4510 c         1 MOL      0.523975
    151 O21         1.9370    4.9670    3.0160 o         1 MOL     -0.518516
    152 C52         1.9120    3.0810    0.5780 c3        1 MOL     -0.005952
    153 C53         2.2790    1.6250    1.0720 c3        1 MOL     -0.028051
    154 C54         1.3280    0.5130    0.4770 c         1 MOL      0.551016
    155 O22         1.7410   -0.3010   -0.4120 o         1 MOL     -0.649942
    156 O23         0.1380    0.5570    0.7080 o         1 MOL     -0.649942
    157 H67         4.2350    2.8900   -0.1860 hn        1 MOL      0.168206
    158 H68         2.5400    5.1460    0.5590 h1        1 MOL      0.182207
    159 H69         1.8670    3.0470   -0.5010 hc        1 MOL      0.071766
    160 H70         0.9110    3.3540    0.8910 hc        1 MOL      0.071766
    161 H71         2.1210    1.6850    2.1450 hc        1 MOL      0.017449
    162 H72         3.3040    1.3080    0.8630 hc        1 MOL      0.017449
    163 N14         4.1270    4.2510    3.0170 n         1 MOL     -0.212879
    164 C55         4.4240    4.7180    4.3420 c3        1 MOL     -0.095875
    165 H73         4.8240    3.8960    4.9350 h1        1 MOL      0.064169
    166 H74         5.1600    5.5200    4.2890 h1        1 MOL      0.064169
    167 H75         3.5120    5.0910    4.8090 h1        1 MOL      0.064169
    168 H76         4.8890    4.0980    2.3580 hn        1 MOL      0.193951
    169 Ca1        -0.5010   -1.5440   -0.8570 Ca        1 MOL      1.729682
    170 O24         0.7860   -1.4390   -3.3690 oh        1 MOL     -0.886325
    171 H77         1.1380   -0.6340   -3.7470 ho        1 MOL      0.425414
    172 H78         0.4730   -1.9430   -4.1180 ho        1 MOL      0.425414
    173 O25        -2.6310   -1.0430    0.5870 oh        1 MOL     -0.886325
    174 H79        -3.5340   -1.3480    0.5540 ho        1 MOL      0.425414
    175 H80        -2.5060   -0.7940    1.5050 ho        1 MOL      0.425414
@<TRIPOS>BOND
     1    1    2 1   
     2    1    4 1   
     3    1    5 1   
     4    1    6 1   
     5    2    3 2   
     6    2    7 1   
     7    7    8 1   
     8    7   15 1   
     9    8    9 1   
    10    8   11 1   
    11    8   16 1   
    12    9   10 2   
    13    9   19 1   
    14   11   12 1   
    15   11   17 1   
    16   11   18 1   
    17   12   13 1   
    18   12   14 1   
    19   19   20 1   
    20   19   24 1   
    21   20   21 1   
    22   20   23 1   
    23   20   25 1   
    24   21   22 2   
    25   21   29 1   
    26   23   26 1   
    27   23   27 1   
    28   23   28 1   
    29   29   30 1   
    30   29   37 1   
    31   30   31 1   
    32   30   33 1   
    33   30   38 1   
    34   31   32 2   
    35   31   41 1   
    36   33   34 1   
    37   33   39 1   
    38   33   40 1   
    39   34   35 1   
    40   34   36 1   
    41   41   42 1   
    42   41   45 1   
    43   42   43 1   
    44   42   46 1   
    45   42   47 1   
    46   43   44 2   
    47   43   48 1   
    48   48   49 1   
    49   48   56 1   
    50   49   50 1   
    51   49   52 1   
    52   49   57 1   
    53   50   51 2   
    54   50   62 1   
    55   52   53 1   
    56   52   58 1   
    57   52   59 1   
    58   53   54 1   
    59   53   55 2   
    60   54   60 1   
    61   54   61 1   
    62   62   63 1   
    63   62   66 1   
    64   63   64 1   
    65   63   67 1   
    66   63   68 1   
    67   64   65 2   
    68   64   69 1   
    69   69   70 1   
    70   69   76 1   
    71   70   71 1   
    72   70   73 1   
    73   70   77 1   
    74   71   72 2   
    75   71   83 1   
    76   73   74 1   
    77   73   75 1   
    78   73   78 1   
    79   74   80 1   
    80   74   81 1   
    81   74   82 1   
    82   75   79 1   
    83   83   84 1   
    84   83   91 1   
    85   84   85 1   
    86   84   87 1   
    87   84   92 1   
    88   85   86 2   
    89   85  102 1   
    90   87   88 1   
    91   87   89 1   
    92   87   93 1   
    93   88   90 1   
    94   88   94 1   
    95   88   95 1   
    96   89   96 1   
    97   89   97 1   
    98   89   98 1   
    99   90   99 1   
   100   90  100 1   
   101   90  101 1   
   102  102  103 1   
   103  102  110 1   
   104  103  104 1   
   105  103  106 1   
   106  103  111 1   
   107  104  105 2   
   108  104  114 1   
   109  106  107 1   
   110  106  112 1   
   111  106  113 1   
   112  107  108 1   
   113  107  109 1   
   114  114  115 1   
   115  114  125 1   
   116  115  116 1   
   117  115  118 1   
   118  115  126 1   
   119  116  117 2   
   120  116  134 1   
   121  118  119 1   
   122  118  127 1   
   123  118  128 1   
   124  119  120 ar  
   125  119  121 ar  
   126  120  122 ar  
   127  120  129 1   
   128  121  123 ar  
   129  121  130 1   
   130  122  124 ar  
   131  122  131 1   
   132  123  124 ar  
   133  123  132 1   
   134  124  133 1   
   135  134  135 1   
   136  134  140 1   
   137  135  136 1   
   138  135  138 1   
   139  135  141 1   
   140  136  137 2   
   141  136  148 1   
   142  138  139 1   
   143  138  142 1   
   144  138  143 1   
   145  139  140 1   
   146  139  144 1   
   147  139  145 1   
   148  140  146 1   
   149  140  147 1   
   150  148  149 1   
   151  148  157 1   
   152  149  150 1   
   153  149  152 1   
   154  149  158 1   
   155  150  151 2   
   156  150  163 1   
   157  152  153 1   
   158  152  159 1   
   159  152  160 1   
   160  153  154 1   
   161  153  161 1   
   162  153  162 1   
   163  154  155 1   
   164  154  156 1   
   165  163  164 1   
   166  163  168 1   
   167  164  165 1   
   168  164  166 1   
   169  164  167 1   
   170  170  171 1   
   171  170  172 1   
   172  173  174 1   
   173  173  175 1   
@<TRIPOS>SUBSTRUCTURE
     1 MOL         1 TEMP              0 ****  ****    0 ROOT
