@<TRIPOS>MOLECULE
MOL
  181   177     1     0     0
SMALL
resp


@<TRIPOS>ATOM
      1 C1          3.7980   -2.2600    3.9080 c3        1 MOL     -0.472339
      2 C2          4.9280   -1.3160    3.5880 c         1 MOL      0.586244
      3 O1          4.8840   -0.0600    3.7780 o         1 MOL     -0.570141
      4 H1          3.5000   -2.1300    4.9480 hc        1 MOL      0.127986
      5 H2          2.9500   -2.0450    3.2580 hc        1 MOL      0.127986
      6 H3          4.1260   -3.2870    3.7500 hc        1 MOL      0.127986
      7 N1          6.0600   -1.8720    3.1390 n         1 MOL     -0.434245
      8 C3          7.3020   -1.2020    2.6320 c3        1 MOL      0.338407
      9 C4          7.1640   -0.8150    1.1000 c         1 MOL      0.457317
     10 O2          6.1910   -1.2720    0.4660 o         1 MOL     -0.593628
     11 C5          8.4400   -2.1410    2.9340 c3        1 MOL     -0.216363
     12 C6          9.8210   -1.5020    2.9890 c         1 MOL      0.767371
     13 O3         10.7610   -2.2760    2.8210 o         1 MOL     -0.741670
     14 O4          9.9840   -0.2820    3.0120 o         1 MOL     -0.741670
     15 H4          5.9130   -2.8660    3.0300 hn        1 MOL      0.201030
     16 H5          7.4240   -0.2700    3.1980 h1        1 MOL     -0.015105
     17 H6          8.3630   -2.9920    2.2570 hc        1 MOL      0.007229
     18 H7          8.2930   -2.4220    3.9820 hc        1 MOL      0.007229
     19 N2          8.0480    0.0570    0.5600 n         1 MOL     -0.416058
     20 C7          7.9220    0.4910   -0.8620 c3        1 MOL      0.059875
     21 C8          6.5450    1.0110   -1.2290 c         1 MOL      0.739836
     22 O5          5.9770    1.9780   -0.6680 o         1 MOL     -0.594033
     23 C9          8.9840    1.6880   -0.9680 c3        1 MOL     -0.424491
     24 H8          8.8510    0.3860    1.0840 hn        1 MOL      0.301816
     25 H9          8.2970   -0.2960   -1.5180 h1        1 MOL      0.097971
     26 H10         9.9700    1.3030   -0.7270 hc        1 MOL      0.120867
     27 H11         8.9300    2.1090   -1.9750 hc        1 MOL      0.120867
     28 H12         8.6170    2.4990   -0.3340 hc        1 MOL      0.120867
     29 N3          5.9620    0.3590   -2.2280 n         1 MOL     -0.687853
     30 C10         4.6050    0.6310   -2.8520 c3        1 MOL      0.343472
     31 C11         4.6330    1.9650   -3.5780 c         1 MOL      0.527219
     32 O6          5.6860    2.3470   -4.0280 o         1 MOL     -0.492433
     33 C12         4.1290   -0.5350   -3.7880 c3        1 MOL     -0.181017
     34 C13         4.3200   -1.9630   -3.3140 c         1 MOL      0.840806
     35 O7          5.4880   -2.3920   -3.1600 o         1 MOL     -0.756536
     36 O8          3.3000   -2.5530   -2.9580 o         1 MOL     -0.756536
     37 H13         6.4830   -0.4420   -2.5700 hn        1 MOL      0.292263
     38 H14         3.8570    0.6970   -2.0620 h1        1 MOL      0.006823
     39 H15         4.5560   -0.4200   -4.7880 hc        1 MOL     -0.000749
     40 H16         3.0570   -0.3340   -3.9040 hc        1 MOL     -0.000749
     41 N4          3.4140    2.5330   -3.8040 n         1 MOL     -0.588100
     42 C14         3.2500    3.6860   -4.6770 c3        1 MOL      0.199301
     43 C15         2.4610    4.9040   -4.1380 c         1 MOL      0.556891
     44 O9          2.7980    6.0040   -4.6340 o         1 MOL     -0.554304
     45 H17         2.5940    2.1260   -3.3640 hn        1 MOL      0.303083
     46 H18         2.7100    3.4410   -5.5940 h1        1 MOL      0.010441
     47 H19         4.2460    4.0100   -4.9780 h1        1 MOL      0.010441
     48 N5          1.5390    4.7950   -3.1770 n         1 MOL     -0.530039
     49 C16         0.7330    5.8480   -2.6060 c3        1 MOL      0.206021
     50 C17         0.7360    5.7910   -1.0390 c         1 MOL      0.545803
     51 O10         1.1280    4.7770   -0.5010 o         1 MOL     -0.455979
     52 C18        -0.6570    5.6840   -3.2440 c3        1 MOL     -0.451369
     53 C19        -0.6180    5.8740   -4.7470 c         1 MOL      0.790445
     54 N6         -0.8170    4.8600   -5.6450 n         1 MOL     -0.902705
     55 O11        -0.4820    7.0130   -5.1410 o         1 MOL     -0.550697
     56 H20         1.2420    3.8800   -2.8970 hn        1 MOL      0.285066
     57 H21         1.2130    6.7590   -2.9580 h1        1 MOL      0.057719
     58 H22        -1.3550    6.3210   -2.7170 hc        1 MOL      0.114028
     59 H23        -0.9690    4.6530   -3.0700 hc        1 MOL      0.114028
     60 H24        -0.8610    3.8840   -5.3830 hn        1 MOL      0.387092
     61 H25        -0.8300    5.0350   -6.6360 hn        1 MOL      0.387092
     62 N7          0.1460    6.8160   -0.3740 n         1 MOL     -0.540611
     63 C20        -0.0540    6.7770    1.0650 c3        1 MOL      0.014839
     64 C21        -1.2470    5.9100    1.4860 c         1 MOL      0.604225
     65 O12        -1.7080    5.1170    0.7000 o         1 MOL     -0.485143
     66 H26        -0.1170    7.6670   -0.8490 hn        1 MOL      0.315738
     67 H27        -0.1800    7.7720    1.4740 h1        1 MOL      0.061577
     68 H28         0.8700    6.3540    1.4630 h1        1 MOL      0.061577
     69 N8         -1.7420    6.0540    2.6670 n         1 MOL     -0.398884
     70 C22        -3.2260    5.9760    2.9580 c3        1 MOL     -0.253241
     71 C23        -3.7250    4.5530    3.1820 c         1 MOL      0.423935
     72 O13        -4.9270    4.3170    3.1240 o         1 MOL     -0.548787
     73 C24        -3.7090    6.8750    4.1050 c3        1 MOL      0.537758
     74 C25        -3.0540    6.7150    5.4730 c3        1 MOL     -0.507899
     75 O14        -3.3340    8.1720    3.6630 oh        1 MOL     -0.678301
     76 H29        -1.1720    6.6370    3.2580 hn        1 MOL      0.203490
     77 H30        -3.7410    6.3420    2.0770 h1        1 MOL      0.161309
     78 H31        -4.7960    6.8500    4.0960 h1        1 MOL      0.048268
     79 H32        -2.3820    8.2900    3.6140 ho        1 MOL      0.395457
     80 H33        -3.4620    7.4860    6.1360 hc        1 MOL      0.126704
     81 H34        -3.2810    5.7530    5.9330 hc        1 MOL      0.126704
     82 H35        -1.9660    6.7550    5.3880 hc        1 MOL      0.126704
     83 N9         -2.8300    3.5260    3.3020 n         1 MOL     -0.032837
     84 C26        -3.0740    2.0530    3.3680 c3        1 MOL     -0.444911
     85 C27        -1.9910    1.2610    2.6230 c         1 MOL      0.508954
     86 O15        -0.8120    1.4930    2.7500 o         1 MOL     -0.478440
     87 C28        -3.3660    1.5870    4.8360 c3        1 MOL      0.388348
     88 C29        -2.2260    1.9390    5.7980 c3        1 MOL     -0.022133
     89 C30        -4.6550    2.0990    5.3010 c3        1 MOL     -0.281788
     90 C31        -2.5510    1.5080    7.2030 c3        1 MOL     -0.285280
     91 H36        -1.8930    3.8850    3.3210 hn        1 MOL      0.151375
     92 H37        -3.9900    1.9250    2.8010 h1        1 MOL      0.157031
     93 H38        -3.3530    0.4970    4.7690 hc        1 MOL     -0.042402
     94 H39        -1.9240    2.9890    5.8060 hc        1 MOL      0.044612
     95 H40        -1.3400    1.3940    5.4710 hc        1 MOL      0.044612
     96 H41        -4.4880    3.1090    5.6880 hc        1 MOL      0.055852
     97 H42        -5.4130    2.0180    4.5200 hc        1 MOL      0.055852
     98 H43        -4.9590    1.4060    6.0880 hc        1 MOL      0.055852
     99 H44        -3.3320    2.1220    7.6650 hc        1 MOL      0.062619
    100 H45        -2.9950    0.5120    7.1760 hc        1 MOL      0.062619
    101 H46        -1.6620    1.3680    7.8130 hc        1 MOL      0.062619
    102 N10        -2.4870    0.2770    1.8630 n         1 MOL     -0.414412
    103 C32        -1.6760   -0.4700    0.8590 c3        1 MOL      0.256023
    104 C33        -2.4360   -0.9320   -0.3940 c         1 MOL      0.499391
    105 O16        -2.1280   -1.9360   -1.0320 o         1 MOL     -0.494505
    106 C34        -1.0620   -1.6390    1.5770 c3        1 MOL     -0.240262
    107 C35         0.2260   -2.1970    0.7930 c         1 MOL      0.621832
    108 O17         0.6770   -3.2470    1.2770 o         1 MOL     -0.673806
    109 O18         0.7720   -1.6340   -0.1430 o         1 MOL     -0.673806
    110 H47        -3.4920    0.1660    1.9230 hn        1 MOL      0.236116
    111 H48        -0.8440    0.1850    0.5970 h1        1 MOL      0.050871
    112 H49        -1.8500   -2.3370    1.8450 hc        1 MOL      0.065144
    113 H50        -0.6250   -1.2450    2.4990 hc        1 MOL      0.065144
    114 N11        -3.4660   -0.1350   -0.7210 n         1 MOL     -0.554004
    115 C36        -4.6100   -0.6150   -1.5560 c3        1 MOL      0.252340
    116 C37        -5.1490   -1.8740   -0.9800 c         1 MOL      0.513863
    117 O19        -5.3680   -1.8660    0.2160 o         1 MOL     -0.542942
    118 C38        -5.7060    0.5220   -1.5250 c3        1 MOL     -0.286184
    119 C39        -7.0190    0.3290   -2.3290 ca        1 MOL      0.074838
    120 C40        -7.1630    0.7330   -3.6570 ca        1 MOL     -0.122942
    121 C41        -8.1280   -0.2470   -1.6940 ca        1 MOL     -0.122942
    122 C42        -8.3360    0.5760   -4.3420 ca        1 MOL     -0.148850
    123 C43        -9.3480   -0.4870   -2.3570 ca        1 MOL     -0.148850
    124 C44        -9.4190   -0.1220   -3.7120 ca        1 MOL     -0.086648
    125 H51        -3.4780    0.8620   -0.5570 hn        1 MOL      0.271545
    126 H52        -4.3460   -0.7250   -2.6010 h1        1 MOL      0.017329
    127 H53        -5.2920    1.4300   -1.9740 hc        1 MOL      0.114370
    128 H54        -6.0420    0.6930   -0.5090 hc        1 MOL      0.114370
    129 H55        -6.3780    1.1960   -4.2300 ha        1 MOL      0.113105
    130 H56        -8.1360   -0.4500   -0.6310 ha        1 MOL      0.113105
    131 H57        -8.4130    0.8370   -5.3840 ha        1 MOL      0.121644
    132 H58       -10.2170   -0.8900   -1.8630 ha        1 MOL      0.121644
    133 H59       -10.3690   -0.1950   -4.2230 ha        1 MOL      0.090845
    134 N12        -5.3600   -2.9740   -1.8150 n         1 MOL     -0.228349
    135 C45        -6.2900   -4.0030   -1.3710 c3        1 MOL     -0.032378
    136 C46        -5.6700   -4.9820   -0.3880 c         1 MOL      0.240285
    137 O20        -6.3040   -5.8210    0.2030 o         1 MOL     -0.482304
    138 C47        -6.8610   -4.5770   -2.6580 c3        1 MOL      0.038384
    139 C48        -6.4470   -3.6620   -3.7820 c3        1 MOL     -0.119378
    140 C49        -5.1050   -3.1920   -3.2490 c3        1 MOL      0.044533
    141 H60        -7.0720   -3.5410   -0.7800 h1        1 MOL      0.090326
    142 H61        -6.4380   -5.5370   -2.9350 hc        1 MOL      0.036079
    143 H62        -7.8930   -4.9100   -2.5940 hc        1 MOL      0.036079
    144 H63        -6.3770   -4.2890   -4.6730 hc        1 MOL      0.039886
    145 H64        -7.2410   -2.9130   -3.7600 hc        1 MOL      0.039886
    146 H65        -4.2910   -3.9040   -3.3060 h1        1 MOL      0.038740
    147 H66        -4.8620   -2.2730   -3.7760 h1        1 MOL      0.038740
    148 N13        -4.3510   -4.8870   -0.2300 n         1 MOL     -0.018365
    149 C50        -3.5460   -5.7510    0.5940 c3        1 MOL     -0.423501
    150 C51        -3.7670   -5.6050    2.0880 c         1 MOL      0.580089
    151 O21        -3.6160   -6.6480    2.7680 o         1 MOL     -0.546576
    152 C52        -2.0550   -5.4410    0.2960 c3        1 MOL      0.076295
    153 C53        -1.4400   -6.0840   -0.9350 c3        1 MOL      0.055426
    154 C54        -0.0580   -5.5610   -1.1580 c         1 MOL      0.590325
    155 O22         0.8670   -5.9160   -0.4000 o         1 MOL     -0.730546
    156 O23         0.2540   -4.6750   -2.0450 o         1 MOL     -0.730546
    157 H67        -3.7840   -4.1990   -0.7220 hn        1 MOL      0.218022
    158 H68        -3.7540   -6.7800    0.2780 h1        1 MOL      0.167805
    159 H69        -1.5060   -5.7780    1.1770 hc        1 MOL      0.045626
    160 H70        -1.9750   -4.3530    0.2780 hc        1 MOL      0.045626
    161 H71        -1.9920   -5.7990   -1.8360 hc        1 MOL     -0.023373
    162 H72        -1.3650   -7.1630   -0.9800 hc        1 MOL     -0.023373
    163 N14        -4.0910   -4.4140    2.6280 n         1 MOL     -0.311753
    164 C55        -4.1250   -4.2260    4.1020 c3        1 MOL     -0.178045
    165 H73        -3.9820   -5.1880    4.5950 h1        1 MOL      0.089277
    166 H74        -3.3290   -3.5440    4.4000 h1        1 MOL      0.089277
    167 H75        -5.0890   -3.8090    4.3940 h1        1 MOL      0.089277
    168 H76        -4.2160   -3.6120    2.0280 hn        1 MOL      0.279472
    169 Ca1         2.2900   -3.7900   -0.7740 Ca        1 MOL      1.740650
    170 O24         5.3030   -3.4310   -0.8640 oh        1 MOL     -0.881883
    171 H77         5.5060   -3.1270   -1.7530 ho        1 MOL      0.430557
    172 H78         5.6280   -2.7220   -0.3050 ho        1 MOL      0.430557
    173 O25         3.3840   -5.2130    1.3810 oh        1 MOL     -0.881883
    174 H79         4.3140   -5.0820    1.2080 ho        1 MOL      0.430557
    175 H80         3.3410   -5.4900    2.2930 ho        1 MOL      0.430557
    176 O26         3.4130   -1.4440    0.1960 oh        1 MOL     -0.881883
    177 H81         4.3490   -1.3010    0.3300 ho        1 MOL      0.430557
    178 H82         2.9950   -0.8480    0.8210 ho        1 MOL      0.430557
    179 O27         3.6510   -5.8130   -1.6880 oh        1 MOL     -0.881883
    180 H83         3.1930   -6.6540   -1.6810 ho        1 MOL      0.430557
    181 H84         4.4790   -5.9940   -2.1330 ho        1 MOL      0.430557
@<TRIPOS>BOND
     1    1    2 1   
     2    1    4 1   
     3    1    5 1   
     4    1    6 1   
     5    2    3 2   
     6    2    7 1   
     7    7    8 1   
     8    7   15 1   
     9    8    9 1   
    10    8   11 1   
    11    8   16 1   
    12    9   10 2   
    13    9   19 1   
    14   11   12 1   
    15   11   17 1   
    16   11   18 1   
    17   12   13 1   
    18   12   14 1   
    19   19   20 1   
    20   19   24 1   
    21   20   21 1   
    22   20   23 1   
    23   20   25 1   
    24   21   22 2   
    25   21   29 1   
    26   23   26 1   
    27   23   27 1   
    28   23   28 1   
    29   29   30 1   
    30   29   37 1   
    31   30   31 1   
    32   30   33 1   
    33   30   38 1   
    34   31   32 2   
    35   31   41 1   
    36   33   34 1   
    37   33   39 1   
    38   33   40 1   
    39   34   35 1   
    40   34   36 1   
    41   41   42 1   
    42   41   45 1   
    43   42   43 1   
    44   42   46 1   
    45   42   47 1   
    46   43   44 2   
    47   43   48 1   
    48   48   49 1   
    49   48   56 1   
    50   49   50 1   
    51   49   52 1   
    52   49   57 1   
    53   50   51 2   
    54   50   62 1   
    55   52   53 1   
    56   52   58 1   
    57   52   59 1   
    58   53   54 1   
    59   53   55 2   
    60   54   60 1   
    61   54   61 1   
    62   62   63 1   
    63   62   66 1   
    64   63   64 1   
    65   63   67 1   
    66   63   68 1   
    67   64   65 2   
    68   64   69 1   
    69   69   70 1   
    70   69   76 1   
    71   70   71 1   
    72   70   73 1   
    73   70   77 1   
    74   71   72 2   
    75   71   83 1   
    76   73   74 1   
    77   73   75 1   
    78   73   78 1   
    79   74   80 1   
    80   74   81 1   
    81   74   82 1   
    82   75   79 1   
    83   83   84 1   
    84   83   91 1   
    85   84   85 1   
    86   84   87 1   
    87   84   92 1   
    88   85   86 2   
    89   85  102 1   
    90   87   88 1   
    91   87   89 1   
    92   87   93 1   
    93   88   90 1   
    94   88   94 1   
    95   88   95 1   
    96   89   96 1   
    97   89   97 1   
    98   89   98 1   
    99   90   99 1   
   100   90  100 1   
   101   90  101 1   
   102  102  103 1   
   103  102  110 1   
   104  103  104 1   
   105  103  106 1   
   106  103  111 1   
   107  104  105 2   
   108  104  114 1   
   109  106  107 1   
   110  106  112 1   
   111  106  113 1   
   112  107  108 1   
   113  107  109 1   
   114  114  115 1   
   115  114  125 1   
   116  115  116 1   
   117  115  118 1   
   118  115  126 1   
   119  116  117 2   
   120  116  134 1   
   121  118  119 1   
   122  118  127 1   
   123  118  128 1   
   124  119  120 ar  
   125  119  121 ar  
   126  120  122 ar  
   127  120  129 1   
   128  121  123 ar  
   129  121  130 1   
   130  122  124 ar  
   131  122  131 1   
   132  123  124 ar  
   133  123  132 1   
   134  124  133 1   
   135  134  135 1   
   136  134  140 1   
   137  135  136 1   
   138  135  138 1   
   139  135  141 1   
   140  136  137 2   
   141  136  148 1   
   142  138  139 1   
   143  138  142 1   
   144  138  143 1   
   145  139  140 1   
   146  139  144 1   
   147  139  145 1   
   148  140  146 1   
   149  140  147 1   
   150  148  149 1   
   151  148  157 1   
   152  149  150 1   
   153  149  152 1   
   154  149  158 1   
   155  150  151 2   
   156  150  163 1   
   157  152  153 1   
   158  152  159 1   
   159  152  160 1   
   160  153  154 1   
   161  153  161 1   
   162  153  162 1   
   163  154  155 1   
   164  154  156 1   
   165  163  164 1   
   166  163  168 1   
   167  164  165 1   
   168  164  166 1   
   169  164  167 1   
   170  170  171 1   
   171  170  172 1   
   172  173  174 1   
   173  173  175 1   
   174  176  177 1   
   175  176  178 1   
   176  179  180 1   
   177  179  181 1   
@<TRIPOS>SUBSTRUCTURE
     1 MOL         1 TEMP              0 ****  ****    0 ROOT
