@<TRIPOS>MOLECULE
MOL
  207   197     1     0     0
SMALL
resp


@<TRIPOS>ATOM
      1 C1         -9.4510   -5.4100   -4.7740 c3        1 MOL     -0.319244
      2 C2         -8.6730   -5.0110   -3.5300 c         1 MOL      0.607357
      3 O1         -9.0050   -3.9150   -2.9330 o         1 MOL     -0.616424
      4 H1         -9.9480   -6.3650   -4.6010 hc        1 MOL      0.089368
      5 H2        -10.1980   -4.6480   -4.9950 hc        1 MOL      0.089368
      6 H3         -8.7670   -5.5050   -5.6170 hc        1 MOL      0.089368
      7 N1         -7.8800   -5.9420   -2.9250 n         1 MOL     -0.354494
      8 C3         -7.1350   -5.7750   -1.6900 c3        1 MOL     -0.120456
      9 C4         -6.1670   -4.5430   -1.7780 c         1 MOL      0.603050
     10 O2         -5.3090   -4.4970   -2.6550 o         1 MOL     -0.534212
     11 C5         -6.2030   -7.0300   -1.4000 c3        1 MOL     -0.200025
     12 C6         -6.8910   -8.3850   -1.5400 c         1 MOL      0.747598
     13 O3         -6.4730   -9.1430   -2.4700 o         1 MOL     -0.680966
     14 O4         -7.7270   -8.6460   -0.7290 o         1 MOL     -0.680966
     15 H4         -7.6630   -6.7520   -3.4940 hn        1 MOL      0.264931
     16 H5         -7.8170   -5.7650   -0.8310 h1        1 MOL      0.103900
     17 H6         -5.7890   -6.9750   -0.3990 hc        1 MOL      0.054384
     18 H7         -5.2960   -6.9100   -2.0010 hc        1 MOL      0.054384
     19 N2         -6.1980   -3.6530   -0.7680 n         1 MOL     -0.462751
     20 C7         -5.3540   -2.4620   -0.5800 c3        1 MOL      0.024722
     21 C8         -4.0130   -2.7440    0.2080 c         1 MOL      0.614141
     22 O5         -4.0230   -3.2290    1.3320 o         1 MOL     -0.563476
     23 C9         -6.1500   -1.6070    0.4380 c3        1 MOL     -0.355889
     24 C10        -7.4860   -1.0840   -0.1020 c3        1 MOL      0.160727
     25 C11        -8.0180   -0.0950    0.8720 c3        1 MOL     -0.081685
     26 C12        -9.3840    0.3670    0.4760 c3        1 MOL      0.079022
     27 N3         -9.6890    1.6880    1.0280 n4        1 MOL     -0.391128
     28 H8         -6.8590   -3.8160   -0.0160 hn        1 MOL      0.267142
     29 H9         -5.0210   -1.9080   -1.4600 h1        1 MOL      0.108426
     30 H10        -5.5300   -0.7660    0.7280 hc        1 MOL      0.125521
     31 H11        -6.4590   -2.2350    1.2680 hc        1 MOL      0.125521
     32 H12        -8.1910   -1.8850   -0.3010 hc        1 MOL      0.006481
     33 H13        -7.3590   -0.6820   -1.1120 hc        1 MOL      0.006481
     34 H14        -7.3230    0.7430    0.9650 hc        1 MOL      0.039028
     35 H15        -7.9700   -0.5820    1.8480 hc        1 MOL      0.039028
     36 H16       -10.1420   -0.4030    0.6040 hx        1 MOL      0.075026
     37 H17        -9.3940    0.5210   -0.6030 hx        1 MOL      0.075026
     38 H18        -9.4800    1.8140    2.0040 hn        1 MOL      0.332082
     39 H19        -9.1620    2.3210    0.4570 hn        1 MOL      0.332082
     40 H20       -10.6500    1.9900    0.9720 hn        1 MOL      0.332082
     41 N4         -2.9020   -2.2640   -0.3560 n         1 MOL     -0.406156
     42 C13        -1.5570   -2.1470    0.2270 c3        1 MOL     -0.275052
     43 C14        -0.7180   -1.2920   -0.6490 c         1 MOL      0.814095
     44 O6         -0.4040   -1.6330   -1.8010 o         1 MOL     -0.561365
     45 C15        -0.7880   -3.4990    0.3130 c3        1 MOL      0.005628
     46 C16         0.6080   -3.4520    0.9040 c         1 MOL      0.281303
     47 O7          0.8100   -2.6950    1.8390 o         1 MOL     -0.568787
     48 O8          1.4970   -4.2810    0.4710 o         1 MOL     -0.568787
     49 H21        -3.0580   -1.9090   -1.2920 hn        1 MOL      0.273243
     50 H22        -1.5530   -1.7600    1.2500 h1        1 MOL      0.194467
     51 H23        -0.6870   -3.9820   -0.6610 hc        1 MOL      0.071963
     52 H24        -1.4130   -4.2300    0.8220 hc        1 MOL      0.071963
     53 N5         -0.3450   -0.0610   -0.2640 n         1 MOL     -0.635195
     54 C17        -0.6470    0.7510    0.8620 c3        1 MOL      0.103280
     55 C18        -2.1390    1.1740    0.9040 c         1 MOL      0.639651
     56 O9         -2.9240    0.8950   -0.0130 o         1 MOL     -0.571271
     57 H25         0.2280    0.4360   -0.9400 hn        1 MOL      0.319478
     58 H26        -0.0430    1.6480    0.7940 h1        1 MOL     -0.017372
     59 H27        -0.5150    0.2190    1.8110 h1        1 MOL     -0.017372
     60 N6         -2.5530    1.9450    1.9130 n         1 MOL     -0.399760
     61 C19        -3.9250    2.5480    2.0110 c3        1 MOL     -0.140880
     62 C20        -4.0680    4.0610    2.1560 c         1 MOL      0.580709
     63 O10        -5.1790    4.5850    1.8930 o         1 MOL     -0.571180
     64 C21        -4.6610    2.0690    3.2940 c3        1 MOL     -0.227702
     65 C22        -3.9550    2.2960    4.5990 c         1 MOL      0.746530
     66 O11        -4.5800    2.0170    5.6430 o         1 MOL     -0.721126
     67 O12        -2.7520    2.6660    4.6680 o         1 MOL     -0.721126
     68 H28        -1.9190    2.1790    2.6580 hn        1 MOL      0.226817
     69 H29        -4.5780    2.2850    1.1760 h1        1 MOL      0.131135
     70 H30        -4.9270    1.0120    3.2580 hc        1 MOL      0.061338
     71 H31        -5.6060    2.5940    3.4230 hc        1 MOL      0.061338
     72 N7         -2.9670    4.7440    2.5250 n         1 MOL     -0.294673
     73 C23        -2.8220    6.2170    2.6580 c3        1 MOL     -0.101491
     74 C24        -2.3380    6.8940    1.3120 c         1 MOL      0.492181
     75 O13        -1.4920    7.7670    1.3150 o         1 MOL     -0.547486
     76 H32        -2.1170    4.2110    2.6930 hn        1 MOL      0.233601
     77 H33        -2.0410    6.3690    3.4120 h1        1 MOL      0.098884
     78 H34        -3.7720    6.6520    2.9480 h1        1 MOL      0.098884
     79 N8         -2.8390    6.3200    0.2370 n         1 MOL     -0.123881
     80 C25        -2.5530    6.6150   -1.1850 c3        1 MOL     -0.028248
     81 C26        -2.4730    5.2390   -1.8780 c         1 MOL      0.404315
     82 O14        -3.2190    4.3140   -1.4930 o         1 MOL     -0.463613
     83 C27        -3.6340    7.4280   -1.8530 c3        1 MOL      0.221097
     84 C28        -5.0680    7.0100   -1.5190 c3        1 MOL     -0.356031
     85 O15        -3.5470    8.7530   -1.2900 oh        1 MOL     -0.550669
     86 H35        -3.5340    5.5980    0.3930 hn        1 MOL      0.105738
     87 H36        -1.5610    7.0540   -1.2600 h1        1 MOL      0.040903
     88 H37        -3.4370    7.4220   -2.9200 h1        1 MOL      0.013925
     89 H38        -2.6830    9.0420   -1.5820 ho        1 MOL      0.360930
     90 H39        -5.1540    7.1480   -0.4500 hc        1 MOL      0.117315
     91 H40        -5.8320    7.6600   -1.9610 hc        1 MOL      0.117315
     92 H41        -5.2900    5.9820   -1.7870 hc        1 MOL      0.117315
     93 N9         -1.4890    5.0090   -2.7830 n         1 MOL     -0.187621
     94 C29        -1.0550    3.6500   -3.2880 c3        1 MOL     -0.108228
     95 C30         0.1520    3.1520   -2.5290 c         1 MOL      0.762434
     96 O16         0.2430    1.9150   -2.3770 o         1 MOL     -0.579119
     97 C31        -0.6550    3.7970   -4.7970 c3        1 MOL      0.074549
     98 C32        -1.7230    4.5280   -5.6430 c3        1 MOL     -0.110811
     99 C33        -0.3800    2.5060   -5.5480 c3        1 MOL     -0.428612
    100 C34        -3.1130    3.9420   -5.7140 c3        1 MOL      0.138768
    101 H42        -1.0290    5.8340   -3.1300 hn        1 MOL      0.208421
    102 H43        -1.8360    2.8990   -3.1370 h1        1 MOL      0.129320
    103 H44         0.2700    4.3730   -4.8030 hc        1 MOL      0.015128
    104 H45        -1.3900    4.6710   -6.6680 hc        1 MOL      0.014347
    105 H46        -1.9220    5.5030   -5.2070 hc        1 MOL      0.014347
    106 H47        -1.2440    1.8500   -5.6700 hc        1 MOL      0.135225
    107 H48        -0.0670    2.7910   -6.5500 hc        1 MOL      0.135225
    108 H49         0.4530    1.9820   -5.1030 hc        1 MOL      0.135225
    109 H50        -3.2480    2.9420   -6.1410 hc        1 MOL     -0.026954
    110 H51        -3.5260    3.9550   -4.6980 hc        1 MOL     -0.026954
    111 H52        -3.7820    4.5810   -6.2860 hc        1 MOL     -0.026954
    112 N10         0.9120    4.0850   -1.9110 n         1 MOL     -0.589939
    113 C35         1.8720    3.8880   -0.7770 c3        1 MOL     -0.099938
    114 C36         3.2560    4.2820   -1.3300 c         1 MOL      0.646281
    115 O17         3.3620    5.4080   -1.9400 o         1 MOL     -0.551054
    116 C37         1.4370    4.7910    0.3820 c3        1 MOL      0.365427
    117 C38         0.1120    4.4160    0.9540 c3        1 MOL     -0.108771
    118 O18         2.5230    4.6540    1.3750 oh        1 MOL     -0.609578
    119 H53         0.7130    5.0540   -2.1030 hn        1 MOL      0.253093
    120 H54         1.9560    2.8410   -0.5060 h1        1 MOL      0.111676
    121 H55         1.3120    5.8420    0.1140 h1        1 MOL      0.085876
    122 H56         2.5500    3.7070    1.5170 ho        1 MOL      0.341700
    123 H57        -0.4050    5.3340    1.2230 hc        1 MOL      0.003777
    124 H58        -0.6340    4.0530    0.2390 hc        1 MOL      0.003777
    125 H59         0.1890    3.6300    1.6990 hc        1 MOL      0.003777
    126 N11         4.3310    3.6190   -0.9000 n         1 MOL     -0.552457
    127 C39         5.7220    3.9200   -1.1550 c3        1 MOL     -0.084739
    128 C40         6.3660    2.5900   -1.5330 c         1 MOL      0.751274
    129 O19         7.0440    2.6480   -2.5460 o         1 MOL     -0.566454
    130 C41         6.3970    4.6240   -0.0120 c3        1 MOL      0.381101
    131 C42         7.7460    5.2640   -0.4110 c3        1 MOL     -0.497694
    132 O20         6.6770    3.7390    1.0870 oh        1 MOL     -0.664637
    133 H60         4.1450    2.8330   -0.2910 hn        1 MOL      0.270082
    134 H61         5.7140    4.5290   -2.0560 h1        1 MOL      0.143496
    135 H62         5.8030    5.4380    0.4250 h1        1 MOL      0.037023
    136 H63         6.5580    4.2520    1.9020 ho        1 MOL      0.409044
    137 H64         8.4720    4.5230   -0.7390 hc        1 MOL      0.134061
    138 H65         7.5540    5.9390   -1.2370 hc        1 MOL      0.134061
    139 H66         8.1300    5.7030    0.5110 hc        1 MOL      0.134061
    140 N12         6.2770    1.4190   -0.8320 n         1 MOL     -0.603918
    141 C43         6.9450    0.1390   -1.1720 c3        1 MOL      0.015005
    142 C44         6.3670   -1.1020   -0.5460 c         1 MOL      0.730562
    143 O21         5.7440   -0.9830    0.5200 o         1 MOL     -0.656158
    144 C45         8.4820    0.2020   -0.8020 c3        1 MOL     -0.132849
    145 C46         9.4190   -1.0020   -0.9000 c3        1 MOL     -0.067908
    146 C47        10.7540   -0.8240   -0.0910 c3        1 MOL      0.218303
    147 C48        11.8490   -1.8840   -0.3060 c3        1 MOL     -0.093534
    148 N13        12.3670   -1.9670   -1.6440 n4        1 MOL     -0.177993
    149 H67         5.8420    1.4280    0.0810 hn        1 MOL      0.339108
    150 H68         6.9330    0.0580   -2.2600 h1        1 MOL      0.081001
    151 H69         8.5030    0.4640    0.2570 hc        1 MOL      0.082197
    152 H70         8.9130    1.0690   -1.3120 hc        1 MOL      0.082197
    153 H71         9.7150   -1.0350   -1.9510 hc        1 MOL     -0.014471
    154 H72         8.8930   -1.9050   -0.5870 hc        1 MOL     -0.014471
    155 H73        10.5850   -0.6870    0.9810 hc        1 MOL     -0.027017
    156 H74        11.1340    0.1650   -0.3470 hc        1 MOL     -0.027017
    157 H75        11.4250   -2.8420   -0.0280 hx        1 MOL      0.096908
    158 H76        12.6200   -1.7090    0.4470 hx        1 MOL      0.096908
    159 H77        11.7390   -2.5100   -2.2280 hn        1 MOL      0.254712
    160 H78        12.5470   -1.0890   -2.1170 hn        1 MOL      0.254712
    161 H79        13.2460   -2.4450   -1.5890 hn        1 MOL      0.254712
    162 N14         6.4370   -2.2390   -1.2360 n         1 MOL     -0.523263
    163 C49         6.0270   -3.5440   -0.6360 c3        1 MOL      0.115687
    164 C50         4.5520   -3.6070   -0.2130 c         1 MOL      0.647384
    165 O22         4.1750   -3.8810    0.9510 o         1 MOL     -0.664183
    166 C51         6.3800   -4.6760   -1.6600 c3        1 MOL      0.017525
    167 C52         7.8450   -5.2030   -1.4730 c3        1 MOL     -0.185046
    168 C53         8.3200   -6.2190   -2.5240 c         1 MOL      0.649643
    169 O23         9.0220   -5.8260   -3.4740 o         1 MOL     -0.683932
    170 O24         7.9500   -7.4000   -2.3780 o         1 MOL     -0.683932
    171 H80         6.7410   -2.2210   -2.1990 hn        1 MOL      0.307896
    172 H81         6.5670   -3.7260    0.2950 h1        1 MOL      0.031916
    173 H82         6.1980   -4.2740   -2.6500 hc        1 MOL      0.041573
    174 H83         5.7600   -5.5440   -1.4490 hc        1 MOL      0.041573
    175 H84         7.9380   -5.6550   -0.4910 hc        1 MOL      0.015090
    176 H85         8.4020   -4.2670   -1.4630 hc        1 MOL      0.015090
    177 N15         3.5790   -3.1010   -1.0310 n         1 MOL     -0.515725
    178 C54         3.5690   -2.7250   -2.4710 c3        1 MOL      0.043214
    179 H86         4.5290   -2.2850   -2.7380 h1        1 MOL      0.028993
    180 H87         3.3960   -3.6140   -3.0780 h1        1 MOL      0.028993
    181 H88         2.7750   -2.0000   -2.6520 h1        1 MOL      0.028993
    182 H89         2.7130   -2.9940   -0.5320 hn        1 MOL      0.430597
    183 Ca1         1.2950   -2.2410    4.2550 Ca        1 MOL      1.672432
    184 O25         2.0990   -4.9280    3.3690 oh        1 MOL     -0.809669
    185 H90         1.7370   -5.7990    3.4680 ho        1 MOL      0.409571
    186 H91         1.9740   -4.7150    2.4500 ho        1 MOL      0.409571
    187 O26         2.9360   -1.3460    6.3340 oh        1 MOL     -0.809669
    188 H92         3.3900   -0.5030    6.2640 ho        1 MOL      0.409571
    189 H93         3.2750   -1.7500    7.1240 ho        1 MOL      0.409571
    190 O27        -0.7740   -3.9540    4.6440 oh        1 MOL     -0.809669
    191 O28         1.9620   -4.0170    6.4280 oh        1 MOL     -0.809669
    192 H94        -1.7160   -3.9320    4.4510 ho        1 MOL      0.409571
    193 H95         2.9180   -4.0660    6.4690 ho        1 MOL      0.409571
    194 H96        -0.5590   -4.8800    4.6490 ho        1 MOL      0.409571
    195 H97         1.6570   -4.7100    7.0130 ho        1 MOL      0.409571
    196 O29        -1.1430   -1.0970    3.7350 oh        1 MOL     -0.809669
    197 H98        -1.8430   -1.7430    3.6640 ho        1 MOL      0.409571
    198 H99        -1.4160   -0.5220    4.4520 ho        1 MOL      0.409571
    199 O30         1.7120    0.2850    3.7820 oh        1 MOL     -0.809669
    200 H100        2.4870    0.8120    3.9710 ho        1 MOL      0.409571
    201 H101        1.0440    0.9270    3.5460 ho        1 MOL      0.409571
    202 O31         0.1120   -0.9600    6.3180 oh        1 MOL     -0.809669
    203 H102       -0.5580   -0.3200    6.5690 ho        1 MOL      0.409571
    204 H103        0.8350   -0.7950    6.9210 ho        1 MOL      0.409571
    205 O32         3.6700   -2.1580    3.1730 oh        1 MOL     -0.809669
    206 H104        4.0570   -2.6890    2.4770 ho        1 MOL      0.409571
    207 H105        4.3990   -1.6830    3.5560 ho        1 MOL      0.409571
@<TRIPOS>BOND
     1    1    2 1   
     2    1    4 1   
     3    1    5 1   
     4    1    6 1   
     5    2    3 2   
     6    2    7 1   
     7    7    8 1   
     8    7   15 1   
     9    8    9 1   
    10    8   11 1   
    11    8   16 1   
    12    9   10 2   
    13    9   19 1   
    14   11   12 1   
    15   11   17 1   
    16   11   18 1   
    17   12   13 1   
    18   12   14 1   
    19   19   20 1   
    20   19   28 1   
    21   20   21 1   
    22   20   23 1   
    23   20   29 1   
    24   21   22 2   
    25   21   41 1   
    26   23   24 1   
    27   23   30 1   
    28   23   31 1   
    29   24   25 1   
    30   24   32 1   
    31   24   33 1   
    32   25   26 1   
    33   25   34 1   
    34   25   35 1   
    35   26   27 1   
    36   26   36 1   
    37   26   37 1   
    38   27   38 1   
    39   27   39 1   
    40   27   40 1   
    41   41   42 1   
    42   41   49 1   
    43   42   43 1   
    44   42   45 1   
    45   42   50 1   
    46   43   44 2   
    47   43   53 1   
    48   45   46 1   
    49   45   51 1   
    50   45   52 1   
    51   46   47 1   
    52   46   48 1   
    53   53   54 1   
    54   53   57 1   
    55   54   55 1   
    56   54   58 1   
    57   54   59 1   
    58   55   56 2   
    59   55   60 1   
    60   60   61 1   
    61   60   68 1   
    62   61   62 1   
    63   61   64 1   
    64   61   69 1   
    65   62   63 2   
    66   62   72 1   
    67   64   65 1   
    68   64   70 1   
    69   64   71 1   
    70   65   66 1   
    71   65   67 1   
    72   72   73 1   
    73   72   76 1   
    74   73   74 1   
    75   73   77 1   
    76   73   78 1   
    77   74   75 2   
    78   74   79 1   
    79   79   80 1   
    80   79   86 1   
    81   80   81 1   
    82   80   83 1   
    83   80   87 1   
    84   81   82 2   
    85   81   93 1   
    86   83   84 1   
    87   83   85 1   
    88   83   88 1   
    89   84   90 1   
    90   84   91 1   
    91   84   92 1   
    92   85   89 1   
    93   93   94 1   
    94   93  101 1   
    95   94   95 1   
    96   94   97 1   
    97   94  102 1   
    98   95   96 2   
    99   95  112 1   
   100   97   98 1   
   101   97   99 1   
   102   97  103 1   
   103   98  100 1   
   104   98  104 1   
   105   98  105 1   
   106   99  106 1   
   107   99  107 1   
   108   99  108 1   
   109  100  109 1   
   110  100  110 1   
   111  100  111 1   
   112  112  113 1   
   113  112  119 1   
   114  113  114 1   
   115  113  116 1   
   116  113  120 1   
   117  114  115 2   
   118  114  126 1   
   119  116  117 1   
   120  116  118 1   
   121  116  121 1   
   122  117  123 1   
   123  117  124 1   
   124  117  125 1   
   125  118  122 1   
   126  126  127 1   
   127  126  133 1   
   128  127  128 1   
   129  127  130 1   
   130  127  134 1   
   131  128  129 2   
   132  128  140 1   
   133  130  131 1   
   134  130  132 1   
   135  130  135 1   
   136  131  137 1   
   137  131  138 1   
   138  131  139 1   
   139  132  136 1   
   140  140  141 1   
   141  140  149 1   
   142  141  142 1   
   143  141  144 1   
   144  141  150 1   
   145  142  143 2   
   146  142  162 1   
   147  144  145 1   
   148  144  151 1   
   149  144  152 1   
   150  145  146 1   
   151  145  153 1   
   152  145  154 1   
   153  146  147 1   
   154  146  155 1   
   155  146  156 1   
   156  147  148 1   
   157  147  157 1   
   158  147  158 1   
   159  148  159 1   
   160  148  160 1   
   161  148  161 1   
   162  162  163 1   
   163  162  171 1   
   164  163  164 1   
   165  163  166 1   
   166  163  172 1   
   167  164  165 2   
   168  164  177 1   
   169  166  167 1   
   170  166  173 1   
   171  166  174 1   
   172  167  168 1   
   173  167  175 1   
   174  167  176 1   
   175  168  169 1   
   176  168  170 1   
   177  177  178 1   
   178  177  182 1   
   179  178  179 1   
   180  178  180 1   
   181  178  181 1   
   182  184  185 1   
   183  184  186 1   
   184  187  188 1   
   185  187  189 1   
   186  190  192 1   
   187  190  194 1   
   188  191  193 1   
   189  191  195 1   
   190  196  197 1   
   191  196  198 1   
   192  199  200 1   
   193  199  201 1   
   194  202  203 1   
   195  202  204 1   
   196  205  206 1   
   197  205  207 1   
@<TRIPOS>SUBSTRUCTURE
     1 MOL         1 TEMP              0 ****  ****    0 ROOT
