@<TRIPOS>MOLECULE
MOL
  192   187     1     0     0
SMALL
resp


@<TRIPOS>ATOM
      1 C1         11.6140    5.9050   -2.1930 c3        1 MOL     -0.372891
      2 C2         11.3960    4.6540   -1.2610 c         1 MOL      0.579142
      3 O1         12.2770    3.8170   -1.1840 o         1 MOL     -0.552158
      4 H1         11.7430    6.7970   -1.5790 hc        1 MOL      0.103443
      5 H2         12.5040    5.7530   -2.8040 hc        1 MOL      0.103443
      6 H3         10.7460    6.0320   -2.8390 hc        1 MOL      0.103443
      7 N1         10.2570    4.6150   -0.5090 n         1 MOL     -0.115310
      8 C3          9.8570    3.4490    0.3320 c3        1 MOL     -0.467850
      9 C4          8.7020    2.6160   -0.1810 c         1 MOL      0.581957
     10 O2          7.5640    3.0960   -0.3850 o         1 MOL     -0.585001
     11 C5          9.5870    3.8260    1.8050 c3        1 MOL     -0.066255
     12 C6          8.6060    5.0390    2.0020 c         1 MOL      0.639281
     13 O3          8.4220    5.4530    3.1990 o         1 MOL     -0.673154
     14 O4          7.9590    5.4730    1.0530 o         1 MOL     -0.673154
     15 H4          9.5540    5.3210   -0.6990 hn        1 MOL      0.093818
     16 H5         10.6840    2.7490    0.4480 h1        1 MOL      0.176100
     17 H6         10.5030    4.1980    2.2630 hc        1 MOL      0.088948
     18 H7          9.1660    3.0400    2.4200 hc        1 MOL      0.088948
     19 N2          8.9300    1.3270   -0.2520 n         1 MOL     -0.363085
     20 C7          7.9450    0.2690   -0.5450 c3        1 MOL     -0.039672
     21 C8          7.0220    0.0290    0.7310 c         1 MOL      0.703852
     22 O5          7.5310   -0.4350    1.8040 o         1 MOL     -0.539505
     23 C9          8.7210   -0.9660   -0.9440 c3        1 MOL     -0.001864
     24 C10         7.9670   -1.8360   -1.9550 c3        1 MOL      0.186395
     25 C11         8.7320   -2.9860   -2.5440 c3        1 MOL     -0.105431
     26 C12         7.8500   -3.7650   -3.5040 c3        1 MOL      0.066365
     27 N3          8.5950   -4.9480   -3.9390 n4        1 MOL     -0.169803
     28 H8          9.6820    0.9640    0.3130 hn        1 MOL      0.274495
     29 H9          7.4010    0.6730   -1.3920 h1        1 MOL      0.093229
     30 H10         9.0350   -1.5980   -0.1140 hc        1 MOL      0.006750
     31 H11         9.6110   -0.6900   -1.5040 hc        1 MOL      0.006750
     32 H12         7.6670   -1.1650   -2.7560 hc        1 MOL     -0.046638
     33 H13         7.0940   -2.1520   -1.3850 hc        1 MOL     -0.046638
     34 H14         9.0570   -3.6070   -1.7060 hc        1 MOL      0.053678
     35 H15         9.4790   -2.5230   -3.1950 hc        1 MOL      0.053678
     36 H16         7.6160   -3.0970   -4.3380 hx        1 MOL      0.059276
     37 H17         6.9180   -4.1130   -3.0530 hx        1 MOL      0.059276
     38 H18         9.5580   -4.8330   -4.2250 hn        1 MOL      0.228991
     39 H19         8.7190   -5.6030   -3.1840 hn        1 MOL      0.228991
     40 H20         8.0970   -5.4240   -4.6850 hn        1 MOL      0.228991
     41 N4          5.6840    0.3740    0.6510 n         1 MOL     -0.522056
     42 C13         4.5970    0.0500    1.6540 c3        1 MOL      0.076163
     43 C14         3.2810   -0.1620    0.8610 c         1 MOL      0.463625
     44 O6          3.1500    0.3800   -0.2380 o         1 MOL     -0.513432
     45 C15         4.6270    1.2010    2.7290 c3        1 MOL     -0.139665
     46 C16         4.5910    2.5970    2.0950 c         1 MOL      0.736857
     47 O7          3.6190    3.0950    1.4610 o         1 MOL     -0.706436
     48 O8          5.6260    3.2680    2.2380 o         1 MOL     -0.706436
     49 H21         5.4130    1.0080   -0.0890 hn        1 MOL      0.128217
     50 H22         4.8190   -0.8910    2.1560 h1        1 MOL      0.085351
     51 H23         5.5640    1.0470    3.2540 hc        1 MOL      0.066633
     52 H24         3.7630    1.1380    3.3960 hc        1 MOL      0.066633
     53 N5          2.2850   -0.8560    1.3820 n         1 MOL     -0.436986
     54 C17         2.1800   -1.6210    2.5470 c3        1 MOL      0.173517
     55 C18         2.3620   -3.1870    2.3620 c         1 MOL      0.327211
     56 O9          2.4680   -3.5710    1.1400 o         1 MOL     -0.520408
     57 H25         1.6620   -1.2060    0.6650 hn        1 MOL      0.351163
     58 H26         1.2790   -1.3810    3.1020 h1        1 MOL      0.028657
     59 H27         2.9530   -1.3240    3.2620 h1        1 MOL      0.028657
     60 N6          2.4190   -4.1060    3.2980 n         1 MOL     -0.202932
     61 C19         2.6750   -5.5170    3.0220 c3        1 MOL      0.002241
     62 C20         1.8370   -6.3140    2.0930 c         1 MOL      0.509201
     63 O10         2.2590   -7.3400    1.7000 o         1 MOL     -0.516282
     64 C21         2.7960   -6.2780    4.3990 c3        1 MOL     -0.257029
     65 C22         3.7020   -5.6670    5.4560 c         1 MOL      0.750699
     66 O11         3.3560   -4.6310    6.0370 o         1 MOL     -0.655568
     67 O12         4.8340   -6.1710    5.7280 o         1 MOL     -0.655568
     68 H28         2.4840   -3.7510    4.2400 hn        1 MOL      0.182548
     69 H29         3.6800   -5.5560    2.6120 h1        1 MOL      0.089129
     70 H30         3.0440   -7.3220    4.2050 hc        1 MOL      0.055575
     71 H31         1.7860   -6.2600    4.8100 hc        1 MOL      0.055575
     72 N7          0.6310   -5.8330    1.8680 n         1 MOL     -0.300780
     73 C23        -0.2590   -6.3150    0.8030 c3        1 MOL     -0.034587
     74 C24        -0.1530   -5.6900   -0.6110 c         1 MOL      0.418318
     75 O13        -0.8710   -6.1340   -1.5350 o         1 MOL     -0.548113
     76 H32         0.3580   -4.9780    2.3290 hn        1 MOL      0.213167
     77 H33        -1.2750   -6.1600    1.1380 h1        1 MOL      0.077183
     78 H34        -0.1260   -7.3860    0.6860 h1        1 MOL      0.077183
     79 N8          0.7490   -4.7160   -0.7340 n         1 MOL     -0.129043
     80 C25         0.8680   -3.8570   -1.8870 c3        1 MOL      0.076322
     81 C26         0.5770   -2.4170   -1.5230 c         1 MOL      0.271270
     82 O14         0.4780   -2.0130   -0.3470 o         1 MOL     -0.478940
     83 C27         2.3270   -3.9720   -2.4200 c3        1 MOL      0.303663
     84 C28         2.9350   -5.4200   -2.4610 c3        1 MOL     -0.279418
     85 O15         2.4380   -3.4820   -3.7140 oh        1 MOL     -0.597369
     86 H35         1.3240   -4.5360    0.0710 hn        1 MOL      0.125605
     87 H36         0.2130   -4.2200   -2.6780 h1        1 MOL      0.085603
     88 H37         2.9770   -3.4000   -1.7540 h1        1 MOL      0.012292
     89 H38         3.3350   -3.2810   -3.9690 ho        1 MOL      0.360407
     90 H39         3.0820   -5.7690   -1.4310 hc        1 MOL      0.070146
     91 H40         2.2200   -6.0470   -3.0090 hc        1 MOL      0.070146
     92 H41         3.8900   -5.4920   -2.9720 hc        1 MOL      0.070146
     93 N9          0.2800   -1.5170   -2.4960 n         1 MOL     -0.249347
     94 C29        -0.1500   -0.1150   -2.3010 c3        1 MOL     -0.000581
     95 C30        -1.4990    0.0130   -1.5530 c         1 MOL      0.366961
     96 O16        -1.7920    0.9600   -0.7710 o         1 MOL     -0.472416
     97 C31        -0.2790    0.5850   -3.6360 c3        1 MOL      0.144939
     98 C32         1.0900    0.5900   -4.4050 c3        1 MOL      0.007342
     99 C33        -0.8830    2.0060   -3.5540 c3        1 MOL     -0.422273
    100 C34         2.3010    1.1770   -3.6830 c3        1 MOL     -0.155861
    101 H42         0.4450   -1.8160   -3.4480 hn        1 MOL      0.214796
    102 H43         0.6260    0.4340   -1.7680 h1        1 MOL      0.070839
    103 H44        -0.9830   -0.0000   -4.2310 hc        1 MOL      0.003189
    104 H45         0.9920    1.2400   -5.2760 hc        1 MOL     -0.007144
    105 H46         1.3260   -0.4230   -4.7260 hc        1 MOL     -0.007144
    106 H47        -0.7310    2.5700   -4.4800 hc        1 MOL      0.127426
    107 H48        -1.9320    1.9370   -3.2770 hc        1 MOL      0.127426
    108 H49        -0.3750    2.5450   -2.7510 hc        1 MOL      0.127426
    109 H50         2.0700    2.2340   -3.5410 hc        1 MOL      0.045341
    110 H51         2.4880    0.7390   -2.6930 hc        1 MOL      0.045341
    111 H52         3.2750    0.9920   -4.1240 hc        1 MOL      0.045341
    112 N10        -2.4080   -1.0080   -1.6900 n         1 MOL     -0.198534
    113 C35        -3.6660   -1.2530   -0.8520 c3        1 MOL     -0.231163
    114 C36        -4.8090   -1.9020   -1.6130 c         1 MOL      0.617809
    115 O17        -4.6000   -2.7000   -2.5080 o         1 MOL     -0.502086
    116 C37        -3.3260   -2.0760    0.4210 c3        1 MOL      0.368740
    117 C38        -2.9150   -3.5120    0.3340 c3        1 MOL     -0.376343
    118 O18        -2.2590   -1.4010    1.1330 oh        1 MOL     -0.578767
    119 H53        -2.3260   -1.6320   -2.4830 hn        1 MOL      0.185025
    120 H54        -3.9630   -0.2490   -0.5460 h1        1 MOL      0.138675
    121 H55        -4.1640   -2.1080    1.1110 h1        1 MOL      0.048605
    122 H56        -1.5050   -1.5840    0.5680 ho        1 MOL      0.373998
    123 H57        -2.2880   -3.6840   -0.5370 hc        1 MOL      0.092056
    124 H58        -2.3640   -3.8580    1.2060 hc        1 MOL      0.092056
    125 H59        -3.8490   -4.0680    0.2290 hc        1 MOL      0.092056
    126 N11        -6.1250   -1.6820   -1.2210 n         1 MOL     -0.569335
    127 C39        -7.3370   -2.2140   -1.9600 c3        1 MOL      0.127201
    128 C40        -8.3490   -1.1320   -2.0950 c         1 MOL      0.574479
    129 O19        -8.7990   -0.8540   -3.2260 o         1 MOL     -0.558497
    130 C41        -7.8920   -3.4500   -1.2940 c3        1 MOL      0.177842
    131 C42        -9.2610   -3.8370   -1.9180 c3        1 MOL     -0.357846
    132 O20        -8.1280   -3.2190    0.1150 oh        1 MOL     -0.600608
    133 H60        -6.2650   -1.0680   -0.4340 hn        1 MOL      0.284769
    134 H61        -7.0530   -2.4770   -2.9800 h1        1 MOL      0.081813
    135 H62        -7.1660   -4.2580   -1.4280 h1        1 MOL      0.073280
    136 H63        -8.4110   -4.0720    0.4530 ho        1 MOL      0.391489
    137 H64        -9.3110   -3.8930   -3.0100 hc        1 MOL      0.097832
    138 H65        -9.6890   -4.7520   -1.5130 hc        1 MOL      0.097832
    139 H66        -9.8810   -3.0410   -1.5010 hc        1 MOL      0.097832
    140 N12        -8.6990   -0.4260   -1.0250 n         1 MOL     -0.441686
    141 C43        -9.6950    0.6700   -0.9980 c3        1 MOL      0.007828
    142 C44        -9.3620    1.7270    0.1290 c         1 MOL      0.612905
    143 O21        -8.5530    1.5560    0.9980 o         1 MOL     -0.526112
    144 C45       -11.0870    0.0280   -0.7230 c3        1 MOL     -0.224346
    145 C46       -11.2430   -0.7070    0.6170 c3        1 MOL      0.067302
    146 C47       -12.7270   -0.9760    1.0170 c3        1 MOL     -0.105837
    147 C48       -12.7820   -1.9210    2.2530 c3        1 MOL     -0.049434
    148 N13       -12.8190   -3.4000    2.0410 n4        1 MOL     -0.295045
    149 H67        -8.3690   -0.7660   -0.1310 hn        1 MOL      0.257963
    150 H68        -9.7550    1.0830   -1.9990 h1        1 MOL      0.124603
    151 H69       -11.3450   -0.6200   -1.5710 hc        1 MOL      0.081241
    152 H70       -11.8480    0.8040   -0.7310 hc        1 MOL      0.081241
    153 H71       -10.8240   -0.1380    1.4450 hc        1 MOL      0.016145
    154 H72       -10.7770   -1.6880    0.5320 hc        1 MOL      0.016145
    155 H73       -13.2970   -1.4230    0.2090 hc        1 MOL      0.068478
    156 H74       -13.1470    0.0160    1.2040 hc        1 MOL      0.068478
    157 H75       -13.7070   -1.6710    2.7870 hx        1 MOL      0.115304
    158 H76       -11.9860   -1.6110    2.9240 hx        1 MOL      0.115304
    159 H77       -11.8980   -3.7100    1.7730 hn        1 MOL      0.253130
    160 H78       -13.1320   -3.9400    2.8360 hn        1 MOL      0.253130
    161 H79       -13.4600   -3.6000    1.2790 hn        1 MOL      0.253130
    162 N14        -9.8940    2.8910   -0.0060 n         1 MOL     -0.502244
    163 C49        -9.7920    4.0410    0.9320 c3        1 MOL      0.175323
    164 C50        -8.3730    4.4760    1.3550 c         1 MOL      0.332152
    165 O22        -8.2370    4.7120    2.5660 o         1 MOL     -0.516437
    166 C51       -10.6300    5.1830    0.4330 c3        1 MOL     -0.023257
    167 C52       -10.5010    6.3890    1.3170 c3        1 MOL     -0.188168
    168 C53       -11.4770    7.5250    0.9320 c         1 MOL      0.667768
    169 O23       -10.9810    8.6110    0.5080 o         1 MOL     -0.624273
    170 O24       -12.7090    7.3710    0.9220 o         1 MOL     -0.624273
    171 H80       -10.4940    2.9880   -0.8180 hn        1 MOL      0.236083
    172 H81       -10.1700    3.7040    1.9020 h1        1 MOL      0.074188
    173 H82       -11.6730    4.8860    0.3270 hc        1 MOL      0.031744
    174 H83       -10.3550    5.5840   -0.5470 hc        1 MOL      0.031744
    175 H84        -9.5090    6.8350    1.2380 hc        1 MOL      0.045711
    176 H85       -10.6210    6.0320    2.3350 hc        1 MOL      0.045711
    177 N15        -7.3440    4.8150    0.5510 n         1 MOL     -0.218332
    178 C54        -7.3340    4.7990   -0.9160 c3        1 MOL     -0.163634
    179 H86        -7.7800    3.8710   -1.2730 h1        1 MOL      0.084160
    180 H87        -7.9070    5.6460   -1.2930 h1        1 MOL      0.084160
    181 H88        -6.3070    4.8680   -1.2740 h1        1 MOL      0.084160
    182 H89        -6.5430    5.0600    1.1230 hn        1 MOL      0.259815
    183 Ca1         5.6750    4.8130    0.1020 Ca        1 MOL      1.756071
    184 O25         4.6930    2.8080   -1.2190 oh        1 MOL     -0.899991
    185 H90         5.0980    2.2430   -1.8780 ho        1 MOL      0.441873
    186 H91         3.7900    2.4980   -1.1610 ho        1 MOL      0.441873
    187 O26         4.9240    6.8620    1.7740 oh        1 MOL     -0.899991
    188 H92         4.2370    7.4860    1.5470 ho        1 MOL      0.441873
    189 H93         5.5320    7.3570    2.3090 ho        1 MOL      0.441873
    190 O27         3.2690    5.5640   -0.8190 oh        1 MOL     -0.899991
    191 H94         2.8320    6.3310   -0.4410 ho        1 MOL      0.441873
    192 H95         2.5600    4.9540   -1.0090 ho        1 MOL      0.441873
@<TRIPOS>BOND
     1    1    2 1   
     2    1    4 1   
     3    1    5 1   
     4    1    6 1   
     5    2    3 2   
     6    2    7 1   
     7    7    8 1   
     8    7   15 1   
     9    8    9 1   
    10    8   11 1   
    11    8   16 1   
    12    9   10 2   
    13    9   19 1   
    14   11   12 1   
    15   11   17 1   
    16   11   18 1   
    17   12   13 1   
    18   12   14 1   
    19   19   20 1   
    20   19   28 1   
    21   20   21 1   
    22   20   23 1   
    23   20   29 1   
    24   21   22 2   
    25   21   41 1   
    26   23   24 1   
    27   23   30 1   
    28   23   31 1   
    29   24   25 1   
    30   24   32 1   
    31   24   33 1   
    32   25   26 1   
    33   25   34 1   
    34   25   35 1   
    35   26   27 1   
    36   26   36 1   
    37   26   37 1   
    38   27   38 1   
    39   27   39 1   
    40   27   40 1   
    41   41   42 1   
    42   41   49 1   
    43   42   43 1   
    44   42   45 1   
    45   42   50 1   
    46   43   44 2   
    47   43   53 1   
    48   45   46 1   
    49   45   51 1   
    50   45   52 1   
    51   46   47 1   
    52   46   48 1   
    53   53   54 1   
    54   53   57 1   
    55   54   55 1   
    56   54   58 1   
    57   54   59 1   
    58   55   56 2   
    59   55   60 1   
    60   60   61 1   
    61   60   68 1   
    62   61   62 1   
    63   61   64 1   
    64   61   69 1   
    65   62   63 2   
    66   62   72 1   
    67   64   65 1   
    68   64   70 1   
    69   64   71 1   
    70   65   66 1   
    71   65   67 1   
    72   72   73 1   
    73   72   76 1   
    74   73   74 1   
    75   73   77 1   
    76   73   78 1   
    77   74   75 2   
    78   74   79 1   
    79   79   80 1   
    80   79   86 1   
    81   80   81 1   
    82   80   83 1   
    83   80   87 1   
    84   81   82 2   
    85   81   93 1   
    86   83   84 1   
    87   83   85 1   
    88   83   88 1   
    89   84   90 1   
    90   84   91 1   
    91   84   92 1   
    92   85   89 1   
    93   93   94 1   
    94   93  101 1   
    95   94   95 1   
    96   94   97 1   
    97   94  102 1   
    98   95   96 2   
    99   95  112 1   
   100   97   98 1   
   101   97   99 1   
   102   97  103 1   
   103   98  100 1   
   104   98  104 1   
   105   98  105 1   
   106   99  106 1   
   107   99  107 1   
   108   99  108 1   
   109  100  109 1   
   110  100  110 1   
   111  100  111 1   
   112  112  113 1   
   113  112  119 1   
   114  113  114 1   
   115  113  116 1   
   116  113  120 1   
   117  114  115 2   
   118  114  126 1   
   119  116  117 1   
   120  116  118 1   
   121  116  121 1   
   122  117  123 1   
   123  117  124 1   
   124  117  125 1   
   125  118  122 1   
   126  126  127 1   
   127  126  133 1   
   128  127  128 1   
   129  127  130 1   
   130  127  134 1   
   131  128  129 2   
   132  128  140 1   
   133  130  131 1   
   134  130  132 1   
   135  130  135 1   
   136  131  137 1   
   137  131  138 1   
   138  131  139 1   
   139  132  136 1   
   140  140  141 1   
   141  140  149 1   
   142  141  142 1   
   143  141  144 1   
   144  141  150 1   
   145  142  143 2   
   146  142  162 1   
   147  144  145 1   
   148  144  151 1   
   149  144  152 1   
   150  145  146 1   
   151  145  153 1   
   152  145  154 1   
   153  146  147 1   
   154  146  155 1   
   155  146  156 1   
   156  147  148 1   
   157  147  157 1   
   158  147  158 1   
   159  148  159 1   
   160  148  160 1   
   161  148  161 1   
   162  162  163 1   
   163  162  171 1   
   164  163  164 1   
   165  163  166 1   
   166  163  172 1   
   167  164  165 2   
   168  164  177 1   
   169  166  167 1   
   170  166  173 1   
   171  166  174 1   
   172  167  168 1   
   173  167  175 1   
   174  167  176 1   
   175  168  169 1   
   176  168  170 1   
   177  177  178 1   
   178  177  182 1   
   179  178  179 1   
   180  178  180 1   
   181  178  181 1   
   182  184  185 1   
   183  184  186 1   
   184  187  188 1   
   185  187  189 1   
   186  190  191 1   
   187  190  192 1   
@<TRIPOS>SUBSTRUCTURE
     1 MOL         1 TEMP              0 ****  ****    0 ROOT
