@<TRIPOS>MOLECULE
MOL
  181   177     1     0     0
SMALL
resp


@<TRIPOS>ATOM
      1 C1          2.0750   -2.2110    4.1760 c3        1 MOL     -0.312489
      2 C2          3.1690   -1.3080    3.6180 c         1 MOL      0.726348
      3 O1          3.1200   -1.0070    2.4530 o         1 MOL     -0.550326
      4 H1          2.1430   -2.2340    5.2640 hc        1 MOL      0.076505
      5 H2          1.0990   -1.8260    3.8820 hc        1 MOL      0.076505
      6 H3          2.2020   -3.2210    3.7850 hc        1 MOL      0.076505
      7 N1          4.1710   -0.9250    4.4010 n         1 MOL     -0.646952
      8 C3          5.2230   -0.0250    3.9590 c3        1 MOL      0.266767
      9 C4          6.2520   -0.5810    2.9420 c         1 MOL      0.313964
     10 O2          6.5670    0.0560    1.9290 o         1 MOL     -0.400330
     11 C5          5.9180    0.3380    5.2890 c3        1 MOL     -0.205737
     12 C6          6.6740    1.6130    5.0520 c         1 MOL      0.701758
     13 O3          6.0180    2.6120    4.8330 o         1 MOL     -0.714885
     14 O4          7.9340    1.6990    4.9610 o         1 MOL     -0.714885
     15 H4          4.0910   -0.9710    5.4110 hn        1 MOL      0.319440
     16 H5          4.8470    0.9300    3.5870 h1        1 MOL      0.057194
     17 H6          6.6630   -0.4010    5.5780 hc        1 MOL     -0.005165
     18 H7          5.2910    0.3570    6.1770 hc        1 MOL     -0.005165
     19 N2          6.7280   -1.8170    3.1590 n         1 MOL     -0.315655
     20 C7          7.5990   -2.6080    2.2750 c3        1 MOL      0.165993
     21 C8          6.9930   -2.8490    0.8800 c         1 MOL      0.375334
     22 O5          7.7540   -3.2690   -0.0310 o         1 MOL     -0.512944
     23 C9          9.0090   -2.0380    2.2050 c3        1 MOL     -0.309894
     24 H8          6.4270   -2.2410    4.0230 hn        1 MOL      0.234561
     25 H9          7.5770   -3.6140    2.6890 h1        1 MOL      0.034660
     26 H10         8.8390   -1.1110    1.6670 hc        1 MOL      0.089559
     27 H11         9.4790   -1.9460    3.1820 hc        1 MOL      0.089559
     28 H12         9.6760   -2.6350    1.5800 hc        1 MOL      0.089559
     29 N3          5.6880   -2.5800    0.6610 n         1 MOL     -0.339841
     30 C10         4.9160   -2.6290   -0.6180 c3        1 MOL      0.218181
     31 C11         5.3910   -1.5810   -1.6140 c         1 MOL      0.315471
     32 O6          5.3390   -1.7640   -2.8380 o         1 MOL     -0.393992
     33 C12         4.9800   -4.0870   -1.2200 c3        1 MOL     -0.323073
     34 C13         3.8120   -4.4450   -2.1560 c         1 MOL      0.784820
     35 O7          2.7430   -3.8890   -1.8900 o         1 MOL     -0.734231
     36 O8          3.9730   -5.1820   -3.1050 o         1 MOL     -0.734231
     37 H13         5.3540   -2.0630    1.4580 hn        1 MOL      0.137945
     38 H14         3.8880   -2.4050   -0.3210 h1        1 MOL      0.079914
     39 H15         4.8660   -4.8070   -0.4130 hc        1 MOL      0.075423
     40 H16         5.9430   -4.2150   -1.7350 hc        1 MOL      0.075423
     41 N4          5.9520   -0.4400   -1.1200 n         1 MOL     -0.161573
     42 C14         6.6990    0.6000   -1.9320 c3        1 MOL      0.073460
     43 C15         5.7730    1.3210   -2.9090 c         1 MOL      0.459720
     44 O9          6.1000    1.4430   -4.0800 o         1 MOL     -0.532121
     45 H17         6.0800   -0.3010   -0.1250 hn        1 MOL      0.138760
     46 H18         7.4790    0.2160   -2.5970 h1        1 MOL      0.030253
     47 H19         7.2120    1.3000   -1.2720 h1        1 MOL      0.030253
     48 N5          4.6200    1.8040   -2.4190 n         1 MOL     -0.392869
     49 C16         3.4670    2.3070   -3.1910 c3        1 MOL      0.110778
     50 C17         3.0100    3.7180   -2.6420 c         1 MOL      0.467283
     51 O10         2.9760    4.0440   -1.4370 o         1 MOL     -0.503318
     52 C18         2.3440    1.2800   -3.0120 c3        1 MOL     -0.130966
     53 C19         2.4150   -0.1850   -3.4470 c         1 MOL      0.789267
     54 N6          2.3140   -1.0390   -2.5020 n         1 MOL     -0.878468
     55 O11         2.6210   -0.4560   -4.5800 o         1 MOL     -0.647521
     56 H20         4.5580    1.8440   -1.4130 hn        1 MOL      0.210051
     57 H21         3.7420    2.4110   -4.2410 h1        1 MOL      0.042738
     58 H22         1.4760    1.6120   -3.5950 hc        1 MOL      0.032855
     59 H23         1.8750    1.2860   -2.0230 hc        1 MOL      0.032855
     60 H24         2.2600   -0.6920   -1.5520 hn        1 MOL      0.372435
     61 H25         2.2690   -2.0210   -2.7350 hn        1 MOL      0.372435
     62 N7          2.7240    4.5110   -3.6020 n         1 MOL     -0.413639
     63 C20         2.3750    5.9840   -3.3870 c3        1 MOL     -0.101984
     64 C21         0.9470    6.2070   -2.9240 c         1 MOL      0.554989
     65 O12        -0.0370    5.6180   -3.3610 o         1 MOL     -0.513885
     66 H26         2.6700    4.1270   -4.5360 hn        1 MOL      0.309639
     67 H27         2.4370    6.4980   -4.3450 h1        1 MOL      0.098424
     68 H28         3.0710    6.5600   -2.7850 h1        1 MOL      0.098424
     69 N8          0.8200    6.9710   -1.8260 n         1 MOL     -0.533859
     70 C22        -0.4560    7.3960   -1.0960 c3        1 MOL     -0.012610
     71 C23        -1.2990    6.2410   -0.5100 c         1 MOL      0.466570
     72 O13        -2.4580    6.3720   -0.1460 o         1 MOL     -0.558291
     73 C24        -0.1640    8.4330   -0.0100 c3        1 MOL      0.138157
     74 C25        -1.1880    8.8640    1.0270 c3        1 MOL     -0.313202
     75 O14         0.9310    7.9870    0.7750 oh        1 MOL     -0.584219
     76 H29         1.6670    7.2970   -1.3780 hn        1 MOL      0.307364
     77 H30        -1.1380    7.8080   -1.8390 h1        1 MOL      0.115725
     78 H31         0.1290    9.3500   -0.5100 h1        1 MOL      0.048048
     79 H32         1.2660    8.7340    1.2870 ho        1 MOL      0.409180
     80 H33        -2.1040    9.2610    0.5860 hc        1 MOL      0.093950
     81 H34        -1.5110    7.9920    1.5900 hc        1 MOL      0.093950
     82 H35        -0.8750    9.6530    1.7100 hc        1 MOL      0.093950
     83 N9         -0.5730    5.1580   -0.3020 n         1 MOL     -0.143503
     84 C26        -1.0160    3.9930    0.5050 c3        1 MOL     -0.070058
     85 C27        -0.9020    2.7250   -0.3420 c         1 MOL      0.387566
     86 O15        -0.1110    2.5910   -1.2280 o         1 MOL     -0.357905
     87 C28        -0.2850    3.9440    1.8950 c3        1 MOL      0.244309
     88 C29         1.2360    3.8050    1.8970 c3        1 MOL      0.091799
     89 C30        -0.7680    5.0130    2.8870 c3        1 MOL     -0.521759
     90 C31         1.9090    3.2810    3.2070 c3        1 MOL     -0.193008
     91 H36         0.3460    5.2870   -0.6890 hn        1 MOL      0.184782
     92 H37        -2.0580    4.1260    0.7770 h1        1 MOL      0.075745
     93 H38        -0.5760    2.9890    2.3430 hc        1 MOL     -0.056623
     94 H39         1.6800    4.7860    1.7770 hc        1 MOL      0.021973
     95 H40         1.4910    3.1800    1.0380 hc        1 MOL      0.021973
     96 H41        -1.8390    4.9100    3.0820 hc        1 MOL      0.122952
     97 H42        -0.2590    5.0260    3.8510 hc        1 MOL      0.122952
     98 H43        -0.7670    5.9940    2.4080 hc        1 MOL      0.122952
     99 H44         2.9920    3.3100    3.0810 hc        1 MOL      0.050590
    100 H45         1.6840    3.8160    4.1210 hc        1 MOL      0.050590
    101 H46         1.7550    2.2280    3.4250 hc        1 MOL      0.050590
    102 N10        -1.8610    1.8280   -0.0740 n         1 MOL     -0.470898
    103 C32        -1.9780    0.4740   -0.6590 c3        1 MOL      0.081734
    104 C33        -3.3980   -0.1040   -0.5930 c         1 MOL      0.538993
    105 O16        -3.5770   -1.3280   -0.8640 o         1 MOL     -0.478220
    106 C34        -1.0720   -0.4340    0.1150 c3        1 MOL     -0.044487
    107 C35        -0.6070   -1.6580   -0.6860 c         1 MOL      0.700078
    108 O17         0.0020   -2.5860   -0.1240 o         1 MOL     -0.717143
    109 O18        -0.8120   -1.6150   -1.8970 o         1 MOL     -0.717143
    110 H47        -2.6170    2.1870    0.4830 hn        1 MOL      0.264547
    111 H48        -1.5190    0.5750   -1.6430 h1        1 MOL      0.061410
    112 H49        -1.6150   -0.7500    0.9980 hc        1 MOL      0.014810
    113 H50        -0.1370    0.0510    0.4260 hc        1 MOL      0.014810
    114 N11        -4.4240    0.7900   -0.4150 n         1 MOL     -0.602421
    115 C36        -5.8930    0.5870   -0.3710 c3        1 MOL      0.415468
    116 C37        -6.2940   -0.2030    0.8570 c         1 MOL      0.195619
    117 O19        -6.0150    0.2120    1.9970 o         1 MOL     -0.454798
    118 C38        -6.5410    1.8640   -0.5170 c3        1 MOL     -0.270498
    119 C39        -8.0800    1.8630   -0.7020 ca        1 MOL      0.122770
    120 C40        -8.6460    1.4960   -1.9210 ca        1 MOL     -0.161743
    121 C41        -8.8920    2.0320    0.4360 ca        1 MOL     -0.161743
    122 C42       -10.0330    1.3850   -1.9870 ca        1 MOL     -0.112781
    123 C43       -10.2610    2.0540    0.3000 ca        1 MOL     -0.112781
    124 C44       -10.8750    1.7380   -0.8990 ca        1 MOL     -0.126323
    125 H51        -4.1340    1.6820   -0.0520 hn        1 MOL      0.277349
    126 H52        -6.1360   -0.0230   -1.2350 h1        1 MOL     -0.021967
    127 H53        -6.1350    2.4490   -1.3470 hc        1 MOL      0.090193
    128 H54        -6.3980    2.3960    0.4200 hc        1 MOL      0.090193
    129 H55        -8.0620    1.1990   -2.7890 ha        1 MOL      0.134313
    130 H56        -8.5190    2.1040    1.4400 ha        1 MOL      0.134313
    131 H57       -10.4120    0.9020   -2.8740 ha        1 MOL      0.104460
    132 H58       -10.8380    2.2200    1.1980 ha        1 MOL      0.104460
    133 H59       -11.9520    1.6730   -0.9860 ha        1 MOL      0.106629
    134 N12        -7.0000   -1.3320    0.5950 n         1 MOL     -0.017156
    135 C45        -7.5670   -2.1450    1.5990 c3        1 MOL     -0.055392
    136 C46        -6.5020   -2.7980    2.4410 c         1 MOL      0.340748
    137 O20        -6.7170   -2.9300    3.6100 o         1 MOL     -0.516857
    138 C47        -8.4760   -3.1480    0.9040 c3        1 MOL      0.300802
    139 C48        -8.9060   -2.4750   -0.3910 c3        1 MOL     -0.265861
    140 C49        -7.5670   -1.7560   -0.7010 c3        1 MOL      0.070120
    141 H60        -8.2160   -1.5200    2.2160 h1        1 MOL      0.065828
    142 H61        -7.8930   -4.0380    0.6790 hc        1 MOL     -0.057233
    143 H62        -9.3140   -3.4620    1.5280 hc        1 MOL     -0.057233
    144 H63        -9.0570   -3.2560   -1.1440 hc        1 MOL      0.068804
    145 H64        -9.8080   -1.8970   -0.1610 hc        1 MOL      0.068804
    146 H65        -6.8540   -2.2680   -1.3480 h1        1 MOL      0.030852
    147 H66        -7.9300   -0.8960   -1.2540 h1        1 MOL      0.030852
    148 N13        -5.3040   -3.0880    1.9320 n         1 MOL     -0.094404
    149 C50        -4.2120   -3.6210    2.7550 c3        1 MOL     -0.394846
    150 C51        -3.7000   -2.7130    3.8720 c         1 MOL      0.555262
    151 O21        -3.1560   -3.2090    4.8260 o         1 MOL     -0.542798
    152 C52        -3.0090   -3.9130    1.8960 c3        1 MOL      0.025054
    153 C53        -3.2650   -4.9740    0.7880 c3        1 MOL     -0.037077
    154 C54        -2.1030   -5.0180   -0.2460 c         1 MOL      0.581723
    155 O22        -2.3920   -4.8860   -1.4660 o         1 MOL     -0.696518
    156 O23        -0.9050   -5.1910    0.0090 o         1 MOL     -0.696518
    157 H67        -5.1610   -3.0660    0.9310 hn        1 MOL      0.199561
    158 H68        -4.6400   -4.5290    3.1720 h1        1 MOL      0.174694
    159 H69        -2.1970   -4.1420    2.5860 hc        1 MOL      0.072184
    160 H70        -2.6420   -3.0440    1.3500 hc        1 MOL      0.072184
    161 H71        -4.1840   -4.7360    0.2590 hc        1 MOL     -0.008105
    162 H72        -3.3710   -5.9810    1.1800 hc        1 MOL     -0.008105
    163 N14        -3.9820   -1.3750    3.8680 n         1 MOL     -0.158515
    164 C55        -3.5990   -0.3900    4.8750 c3        1 MOL     -0.278437
    165 H73        -2.9700   -0.8660    5.6270 h1        1 MOL      0.105071
    166 H74        -3.0470    0.4200    4.4010 h1        1 MOL      0.105071
    167 H75        -4.4940    0.0100    5.3520 h1        1 MOL      0.105071
    168 H76        -4.5540   -1.0470    3.1080 hn        1 MOL      0.190299
    169 Ca1        -0.0200   -4.1760   -2.2810 Ca        1 MOL      1.749893
    170 O24        -0.1500   -5.7050   -4.5360 oh        1 MOL     -0.852643
    171 O25        -1.7750   -3.5880   -4.3890 oh        1 MOL     -0.852643
    172 H77        -0.5460   -6.0710   -5.3250 ho        1 MOL      0.412882
    173 H78        -1.8530   -4.0360   -5.2280 ho        1 MOL      0.412882
    174 H79         0.4440   -6.3900   -4.2330 ho        1 MOL      0.412882
    175 H80        -1.6920   -2.6550   -4.6190 ho        1 MOL      0.412882
    176 O26         1.2710   -3.0150   -4.3630 oh        1 MOL     -0.852643
    177 H81         1.3790   -3.4950   -5.1810 ho        1 MOL      0.412882
    178 H82         1.7650   -2.2000   -4.4980 ho        1 MOL      0.412882
    179 O27         0.9090   -6.6410   -1.8010 oh        1 MOL     -0.852643
    180 H83         0.7430   -7.2080   -1.0500 ho        1 MOL      0.412882
    181 H84         1.4730   -7.1680   -2.3710 ho        1 MOL      0.412882
@<TRIPOS>BOND
     1    1    2 1   
     2    1    4 1   
     3    1    5 1   
     4    1    6 1   
     5    2    3 2   
     6    2    7 1   
     7    7    8 1   
     8    7   15 1   
     9    8    9 1   
    10    8   11 1   
    11    8   16 1   
    12    9   10 2   
    13    9   19 1   
    14   11   12 1   
    15   11   17 1   
    16   11   18 1   
    17   12   13 1   
    18   12   14 1   
    19   19   20 1   
    20   19   24 1   
    21   20   21 1   
    22   20   23 1   
    23   20   25 1   
    24   21   22 2   
    25   21   29 1   
    26   23   26 1   
    27   23   27 1   
    28   23   28 1   
    29   29   30 1   
    30   29   37 1   
    31   30   31 1   
    32   30   33 1   
    33   30   38 1   
    34   31   32 2   
    35   31   41 1   
    36   33   34 1   
    37   33   39 1   
    38   33   40 1   
    39   34   35 1   
    40   34   36 1   
    41   41   42 1   
    42   41   45 1   
    43   42   43 1   
    44   42   46 1   
    45   42   47 1   
    46   43   44 2   
    47   43   48 1   
    48   48   49 1   
    49   48   56 1   
    50   49   50 1   
    51   49   52 1   
    52   49   57 1   
    53   50   51 2   
    54   50   62 1   
    55   52   53 1   
    56   52   58 1   
    57   52   59 1   
    58   53   54 1   
    59   53   55 2   
    60   54   60 1   
    61   54   61 1   
    62   62   63 1   
    63   62   66 1   
    64   63   64 1   
    65   63   67 1   
    66   63   68 1   
    67   64   65 2   
    68   64   69 1   
    69   69   70 1   
    70   69   76 1   
    71   70   71 1   
    72   70   73 1   
    73   70   77 1   
    74   71   72 2   
    75   71   83 1   
    76   73   74 1   
    77   73   75 1   
    78   73   78 1   
    79   74   80 1   
    80   74   81 1   
    81   74   82 1   
    82   75   79 1   
    83   83   84 1   
    84   83   91 1   
    85   84   85 1   
    86   84   87 1   
    87   84   92 1   
    88   85   86 2   
    89   85  102 1   
    90   87   88 1   
    91   87   89 1   
    92   87   93 1   
    93   88   90 1   
    94   88   94 1   
    95   88   95 1   
    96   89   96 1   
    97   89   97 1   
    98   89   98 1   
    99   90   99 1   
   100   90  100 1   
   101   90  101 1   
   102  102  103 1   
   103  102  110 1   
   104  103  104 1   
   105  103  106 1   
   106  103  111 1   
   107  104  105 2   
   108  104  114 1   
   109  106  107 1   
   110  106  112 1   
   111  106  113 1   
   112  107  108 1   
   113  107  109 1   
   114  114  115 1   
   115  114  125 1   
   116  115  116 1   
   117  115  118 1   
   118  115  126 1   
   119  116  117 2   
   120  116  134 1   
   121  118  119 1   
   122  118  127 1   
   123  118  128 1   
   124  119  120 ar  
   125  119  121 ar  
   126  120  122 ar  
   127  120  129 1   
   128  121  123 ar  
   129  121  130 1   
   130  122  124 ar  
   131  122  131 1   
   132  123  124 ar  
   133  123  132 1   
   134  124  133 1   
   135  134  135 1   
   136  134  140 1   
   137  135  136 1   
   138  135  138 1   
   139  135  141 1   
   140  136  137 2   
   141  136  148 1   
   142  138  139 1   
   143  138  142 1   
   144  138  143 1   
   145  139  140 1   
   146  139  144 1   
   147  139  145 1   
   148  140  146 1   
   149  140  147 1   
   150  148  149 1   
   151  148  157 1   
   152  149  150 1   
   153  149  152 1   
   154  149  158 1   
   155  150  151 2   
   156  150  163 1   
   157  152  153 1   
   158  152  159 1   
   159  152  160 1   
   160  153  154 1   
   161  153  161 1   
   162  153  162 1   
   163  154  155 1   
   164  154  156 1   
   165  163  164 1   
   166  163  168 1   
   167  164  165 1   
   168  164  166 1   
   169  164  167 1   
   170  170  172 1   
   171  170  174 1   
   172  171  173 1   
   173  171  175 1   
   174  176  177 1   
   175  176  178 1   
   176  179  180 1   
   177  179  181 1   
@<TRIPOS>SUBSTRUCTURE
     1 MOL         1 TEMP              0 ****  ****    0 ROOT
