@<TRIPOS>MOLECULE
MOL
  195   189     1     0     0
SMALL
resp


@<TRIPOS>ATOM
      1 C1         -3.9790   -2.3190    3.0660 c3        1 MOL     -0.602178
      2 C2         -3.3230   -2.5780    1.6710 c         1 MOL      0.962714
      3 O1         -2.6590   -1.6500    1.1530 o         1 MOL     -0.549719
      4 H1         -4.8060   -1.6190    2.9540 hc        1 MOL      0.147309
      5 H2         -4.3520   -3.2580    3.4740 hc        1 MOL      0.147309
      6 H3         -3.2360   -1.8970    3.7440 hc        1 MOL      0.147309
      7 N1         -3.4560   -3.8150    1.1740 n         1 MOL     -0.962958
      8 C3         -2.7060   -4.3800    0.0910 c3        1 MOL      0.005367
      9 C4         -1.1750   -4.4070    0.1590 c         1 MOL      0.931778
     10 O2         -0.5340   -4.1340   -0.8470 o         1 MOL     -0.543128
     11 C5         -3.3030   -3.9820   -1.2400 c3        1 MOL     -0.664931
     12 C6         -4.8530   -3.9030   -1.2480 c         1 MOL      1.052355
     13 O3         -5.3230   -2.7380   -1.2970 o         1 MOL     -0.745943
     14 O4         -5.5040   -4.9210   -1.3880 o         1 MOL     -0.745943
     15 H4         -3.9630   -4.4680    1.7510 hn        1 MOL      0.366184
     16 H5         -2.9290   -5.4490    0.1090 h1        1 MOL      0.109439
     17 H6         -2.8340   -4.5950   -2.0050 hc        1 MOL      0.193386
     18 H7         -3.0200   -2.9310   -1.3220 hc        1 MOL      0.193386
     19 N2         -0.5650   -4.7880    1.3070 n         1 MOL     -0.832529
     20 C7          0.9080   -4.8460    1.3810 c3        1 MOL     -0.205290
     21 C8          1.5560   -5.8520    0.4550 c         1 MOL      0.622106
     22 O5          0.9870   -6.8320    0.0190 o         1 MOL     -0.561962
     23 C9          1.4400   -4.9560    2.8230 c3        1 MOL      0.096893
     24 C10         1.2260   -6.4150    3.3250 c3        1 MOL      0.245251
     25 C11         0.8950   -3.8400    3.7630 c3        1 MOL     -0.489057
     26 C12         1.7300   -6.7660    4.7450 c3        1 MOL     -0.098265
     27 H8         -1.1380   -4.9710    2.1280 hn        1 MOL      0.465237
     28 H9          1.3110   -3.8510    1.1880 h1        1 MOL      0.182235
     29 H10         2.5230   -4.8440    2.9090 hc        1 MOL      0.081411
     30 H11         1.7620   -7.1180    2.6890 hc        1 MOL     -0.047025
     31 H12         0.1520   -6.6270    3.3670 hc        1 MOL     -0.047025
     32 H13        -0.1740   -3.8190    3.9900 hc        1 MOL      0.123927
     33 H14         1.4640   -3.8810    4.6920 hc        1 MOL      0.123927
     34 H15         1.0260   -2.8880    3.2490 hc        1 MOL      0.123927
     35 H16         1.4840   -6.0220    5.5030 hc        1 MOL      0.002899
     36 H17         1.2180   -7.7070    4.9710 hc        1 MOL      0.002899
     37 H18         2.8110   -6.8800    4.8520 hc        1 MOL      0.002899
     38 N3          2.7800   -5.5770   -0.0380 n         1 MOL     -0.514532
     39 C13         3.8360   -4.6360    0.3720 c3        1 MOL     -0.120803
     40 C14         4.4960   -3.8760   -0.8230 c         1 MOL      0.579000
     41 O6          5.2380   -2.9100   -0.5450 o         1 MOL     -0.496878
     42 C15         4.7870   -5.5210    1.1670 c3        1 MOL     -0.043614
     43 C16         5.4690   -6.6740    0.3870 c         1 MOL      0.666267
     44 O7          4.8980   -7.7200    0.1380 o         1 MOL     -0.667329
     45 O8          6.6880   -6.5210    0.0990 o         1 MOL     -0.667329
     46 H19         2.9860   -6.2980   -0.7230 hn        1 MOL      0.296454
     47 H20         3.3560   -3.8340    0.9430 h1        1 MOL      0.040500
     48 H21         4.2650   -5.8920    2.0450 hc        1 MOL      0.014974
     49 H22         5.6420   -4.8970    1.4430 hc        1 MOL      0.014974
     50 N4          4.4030   -4.4250   -2.0130 n         1 MOL     -0.313879
     51 C17         4.6530   -3.7750   -3.2690 c3        1 MOL     -0.079588
     52 C18         5.9320   -2.9790   -3.3240 c         1 MOL      0.503511
     53 O9          6.9580   -3.5430   -2.9620 o         1 MOL     -0.515776
     54 H23         3.6960   -5.1470   -1.9560 hn        1 MOL      0.279490
     55 H24         3.8980   -3.0110   -3.4350 h1        1 MOL      0.069452
     56 H25         4.5870   -4.3540   -4.1850 h1        1 MOL      0.069452
     57 N5          5.9370   -1.6780   -3.6720 n         1 MOL     -0.441056
     58 C19         7.0570   -0.7890   -3.7410 c3        1 MOL      0.107540
     59 C20         7.7750   -0.5920   -2.4010 c         1 MOL      0.314377
     60 O10         8.9120   -0.1810   -2.3730 o         1 MOL     -0.565954
     61 C21         6.6280    0.5820   -4.2600 c3        1 MOL     -0.331918
     62 C22         5.3920    1.0300   -3.5010 c         1 MOL      0.804478
     63 O11         5.5250    1.6210   -2.4150 o         1 MOL     -0.713269
     64 O12         4.2620    0.7730   -4.0500 o         1 MOL     -0.713269
     65 H26         5.0310   -1.2340   -3.6670 hn        1 MOL      0.251557
     66 H27         7.7530   -1.2840   -4.4150 h1        1 MOL      0.082650
     67 H28         6.3520    0.3930   -5.2910 hc        1 MOL      0.066665
     68 H29         7.3720    1.3790   -4.1350 hc        1 MOL      0.066665
     69 N6          7.1680   -0.8420   -1.2370 n         1 MOL      0.161144
     70 C23         7.8250   -0.7270    0.0560 c3        1 MOL     -0.518910
     71 C24         7.8350    0.7320    0.5400 c         1 MOL      0.575635
     72 O13         8.4670    1.0380    1.5410 o         1 MOL     -0.628046
     73 H30         6.2350   -1.2170   -1.1990 hn        1 MOL      0.116542
     74 H31         8.8670   -0.9960   -0.1090 h1        1 MOL      0.192771
     75 H32         7.2520   -1.2470    0.8270 h1        1 MOL      0.192771
     76 N7          7.2040    1.6580   -0.1190 n         1 MOL     -0.119888
     77 C25         7.0800    3.1020    0.2010 c3        1 MOL      0.062709
     78 C26         6.6510    3.4850    1.5890 c         1 MOL      0.352150
     79 O14         7.1100    4.5170    2.1000 o         1 MOL     -0.531606
     80 C27         8.1800    4.0270   -0.3470 c3        1 MOL      0.031279
     81 C28         8.7390    3.6130   -1.6950 c3        1 MOL     -0.099987
     82 C29         9.5690    4.6690   -2.2900 c         1 MOL      0.564529
     83 N8         10.6450    4.2250   -2.9980 n         1 MOL     -0.782442
     84 O15         9.2600    5.8620   -2.2190 o         1 MOL     -0.553803
     85 H33         6.7500    1.3300   -0.9600 hn        1 MOL      0.048421
     86 H34         6.2130    3.4390   -0.3600 h1        1 MOL      0.087408
     87 H35         9.0500    3.9720    0.3180 hc        1 MOL      0.005382
     88 H36         7.8500    5.0660   -0.3000 hc        1 MOL      0.005382
     89 H37         7.9620    3.3000   -2.3910 hc        1 MOL      0.070227
     90 H38         9.3500    2.7240   -1.5430 hc        1 MOL      0.070227
     91 H39        10.7580    3.2270   -3.0490 hn        1 MOL      0.351247
     92 H40        11.1290    4.9610   -3.4920 hn        1 MOL      0.351247
     93 N9          5.7840    2.6960    2.2870 n         1 MOL      0.051919
     94 C30         5.1350    3.0310    3.5450 c3        1 MOL     -0.278465
     95 C31         3.5580    3.1690    3.4640 c         1 MOL      0.467407
     96 O16         2.8970    3.1860    4.4960 o         1 MOL     -0.531588
     97 C32         5.5010    2.0030    4.6460 c3        1 MOL      0.450894
     98 C33         5.1660    0.5230    4.3470 c3        1 MOL     -0.482565
     99 C34         7.0290    1.9900    4.9910 c3        1 MOL     -0.482565
    100 H41         5.5150    1.8690    1.7820 hn        1 MOL      0.093526
    101 H42         5.5400    3.9920    3.8740 h1        1 MOL      0.109382
    102 H43         4.9930    2.2720    5.5660 hc        1 MOL     -0.048242
    103 H44         5.7780    0.1680    3.5050 hc        1 MOL      0.110392
    104 H45         5.4430   -0.1350    5.1670 hc        1 MOL      0.110392
    105 H46         4.0790    0.4580    4.3340 hc        1 MOL      0.110392
    106 H47         7.2250    1.4540    5.9260 hc        1 MOL      0.110392
    107 H48         7.6450    1.7540    4.1290 hc        1 MOL      0.110392
    108 H49         7.3040    3.0340    5.1280 hc        1 MOL      0.110392
    109 N10         2.9510    2.9250    2.3100 n         1 MOL     -0.293282
    110 C35         1.5970    2.5040    2.0710 c3        1 MOL      0.180722
    111 C36         1.0190    3.0360    0.7550 c         1 MOL      0.537056
    112 O17         1.7750    3.4450   -0.1010 o         1 MOL     -0.492166
    113 C37         1.6200    0.9880    2.1430 c3        1 MOL     -0.030498
    114 C38         0.3240    0.3200    2.2630 c         1 MOL      0.523463
    115 N11         0.1230   -0.6220    1.4450 n         1 MOL     -0.494940
    116 O18        -0.5610    0.5550    3.1260 o         1 MOL     -0.594582
    117 H50         3.4230    3.1180    1.4420 hn        1 MOL      0.140899
    118 H51         0.9480    2.8820    2.8570 h1        1 MOL      0.013109
    119 H52         2.1750    0.5660    2.9770 hc        1 MOL      0.018515
    120 H53         2.1950    0.6100    1.3010 hc        1 MOL      0.018515
    121 H54         0.7380   -0.8850    0.6880 hn        1 MOL      0.280221
    122 H55        -0.7440   -1.1450    1.5010 hn        1 MOL      0.280221
    123 N12        -0.3220    3.0650    0.5380 n         1 MOL     -0.525064
    124 C39        -0.9680    3.8000   -0.5310 c3        1 MOL      0.049381
    125 C40        -2.4320    4.0850   -0.1430 c         1 MOL      0.640498
    126 O19        -2.9700    3.3960    0.8080 o         1 MOL     -0.608787
    127 C41        -0.8850    3.0370   -1.8840 c3        1 MOL     -0.260829
    128 C42        -1.9670    2.0790   -2.1810 ca        1 MOL      0.018917
    129 C43        -2.1000    0.9300   -1.4330 ca        1 MOL     -0.122962
    130 C44        -3.0330    2.4040   -3.1390 ca        1 MOL     -0.122962
    131 C45        -3.2610    0.0840   -1.5870 ca        1 MOL     -0.329359
    132 C46        -4.1070    1.5490   -3.3580 ca        1 MOL     -0.329359
    133 C47        -4.1900    0.3650   -2.6050 ca        1 MOL      0.464667
    134 O20        -5.2050   -0.4900   -2.8250 oh        1 MOL     -0.622069
    135 H56        -0.8620    2.5220    1.2000 hn        1 MOL      0.297920
    136 H57        -0.3580    4.7110   -0.5890 h1        1 MOL      0.084299
    137 H58         0.0580    2.4930   -1.9390 hc        1 MOL      0.110581
    138 H59        -0.9360    3.8530   -2.5970 hc        1 MOL      0.110581
    139 H60        -1.4020    0.6170   -0.6770 ha        1 MOL      0.124295
    140 H61        -2.9190    3.2810   -3.7420 ha        1 MOL      0.124295
    141 H62        -3.4540   -0.7990   -1.0050 ha        1 MOL      0.165079
    142 H63        -4.8710    1.7320   -4.1010 ha        1 MOL      0.165079
    143 H64        -5.3840   -1.1410   -2.1360 ho        1 MOL      0.444145
    144 N13        -3.0630    5.0120   -0.8020 n         1 MOL     -0.533107
    145 C48        -4.5110    5.3200   -0.5190 c3        1 MOL      0.245605
    146 C49        -5.3180    4.8830   -1.7550 c         1 MOL      0.463243
    147 O21        -5.2370    5.5340   -2.7970 o         1 MOL     -0.591313
    148 C50        -4.7150    6.7550   -0.1770 c3        1 MOL     -0.108076
    149 C51        -4.0450    7.2570    1.1270 c3        1 MOL     -0.160732
    150 C52        -4.1210    8.8070    1.2200 c         1 MOL      0.677674
    151 O22        -3.2240    9.5230    0.6660 o         1 MOL     -0.664000
    152 O23        -5.0670    9.3340    1.8550 o         1 MOL     -0.664000
    153 H65        -2.6100    5.5290   -1.5440 hn        1 MOL      0.324243
    154 H66        -4.9030    4.7740    0.3410 h1        1 MOL      0.074857
    155 H67        -5.8050    6.8470   -0.1580 hc        1 MOL      0.047989
    156 H68        -4.3030    7.3890   -0.9540 hc        1 MOL      0.047989
    157 H69        -3.0280    6.8790    1.1820 hc        1 MOL      0.022773
    158 H70        -4.5370    6.8020    1.9860 hc        1 MOL      0.022773
    159 N14        -6.2180    3.9500   -1.7820 n         1 MOL     -0.352296
    160 C53        -6.5120    2.9670   -0.7170 c3        1 MOL     -0.292503
    161 C54        -7.0450    3.6050    0.6030 c         1 MOL      0.635918
    162 O24        -7.5850    4.6660    0.6320 o         1 MOL     -0.512886
    163 C55        -7.7020    2.0910   -1.2130 c3        1 MOL      0.325763
    164 C56        -8.3930    1.1330   -0.2440 c3        1 MOL     -0.632171
    165 C57        -9.0640   -0.0320   -0.9950 c         1 MOL      0.916379
    166 O25        -8.4990   -1.1130   -1.2240 o         1 MOL     -0.715114
    167 O26       -10.2800    0.1150   -1.3620 o         1 MOL     -0.715114
    168 H71        -6.7930    3.9400   -2.6080 hn        1 MOL      0.296711
    169 H72        -5.6650    2.2980   -0.5240 h1        1 MOL      0.146035
    170 H73        -7.3370    1.4770   -2.0340 hc        1 MOL     -0.034241
    171 H74        -8.4180    2.7040   -1.7790 hc        1 MOL     -0.034241
    172 H75        -9.1670    1.6850    0.2920 hc        1 MOL      0.123026
    173 H76        -7.6230    0.7660    0.4300 hc        1 MOL      0.123026
    174 N15        -6.7380    2.9750    1.7930 n         1 MOL     -0.388475
    175 C58        -6.9110    3.4380    3.1850 c3        1 MOL     -0.000493
    176 H77        -7.7810    4.0930    3.2440 h1        1 MOL      0.043359
    177 H78        -7.0580    2.5780    3.8390 h1        1 MOL      0.043359
    178 H79        -6.0220    3.9870    3.4990 h1        1 MOL      0.043359
    179 H80        -6.2120    2.1190    1.8060 hn        1 MOL      0.268389
    180 Ca1        -7.7160   -3.4440   -0.4620 Ca        1 MOL      1.654747
    181 O27        -9.0960   -3.0960    1.9770 oh        1 MOL     -0.838177
    182 H81        -9.3020   -4.0270    2.0950 ho        1 MOL      0.378338
    183 H82        -9.7690   -2.6340    2.4850 ho        1 MOL      0.378338
    184 O28       -10.3790   -2.9670   -1.0260 oh        1 MOL     -0.838177
    185 H83       -11.0220   -3.4810   -1.5160 ho        1 MOL      0.378338
    186 H84       -10.4440   -2.0850   -1.3800 ho        1 MOL      0.378338
    187 O29        -6.5260   -1.7130    1.2440 oh        1 MOL     -0.838177
    188 H85        -6.8210   -1.9190    2.1330 ho        1 MOL      0.378338
    189 H86        -6.0550   -0.8830    1.3380 ho        1 MOL      0.378338
    190 O30        -8.9330   -5.8240   -0.3970 oh        1 MOL     -0.838177
    191 O31        -8.1570   -4.0300   -2.9490 oh        1 MOL     -0.838177
    192 H87        -9.7290   -6.0740   -0.8690 ho        1 MOL      0.378338
    193 H88        -8.8600   -4.1720   -3.5920 ho        1 MOL      0.378338
    194 H89        -9.0680   -6.1440    0.4980 ho        1 MOL      0.378338
    195 H90        -7.3920   -4.4780   -3.3230 ho        1 MOL      0.378338
@<TRIPOS>BOND
     1    1    2 1   
     2    1    4 1   
     3    1    5 1   
     4    1    6 1   
     5    2    3 2   
     6    2    7 1   
     7    7    8 1   
     8    7   15 1   
     9    8    9 1   
    10    8   11 1   
    11    8   16 1   
    12    9   10 2   
    13    9   19 1   
    14   11   12 1   
    15   11   17 1   
    16   11   18 1   
    17   12   13 1   
    18   12   14 1   
    19   19   20 1   
    20   19   27 1   
    21   20   21 1   
    22   20   23 1   
    23   20   28 1   
    24   21   22 2   
    25   21   38 1   
    26   23   24 1   
    27   23   25 1   
    28   23   29 1   
    29   24   26 1   
    30   24   30 1   
    31   24   31 1   
    32   25   32 1   
    33   25   33 1   
    34   25   34 1   
    35   26   35 1   
    36   26   36 1   
    37   26   37 1   
    38   38   39 1   
    39   38   46 1   
    40   39   40 1   
    41   39   42 1   
    42   39   47 1   
    43   40   41 2   
    44   40   50 1   
    45   42   43 1   
    46   42   48 1   
    47   42   49 1   
    48   43   44 1   
    49   43   45 1   
    50   50   51 1   
    51   50   54 1   
    52   51   52 1   
    53   51   55 1   
    54   51   56 1   
    55   52   53 2   
    56   52   57 1   
    57   57   58 1   
    58   57   65 1   
    59   58   59 1   
    60   58   61 1   
    61   58   66 1   
    62   59   60 2   
    63   59   69 1   
    64   61   62 1   
    65   61   67 1   
    66   61   68 1   
    67   62   63 1   
    68   62   64 1   
    69   69   70 1   
    70   69   73 1   
    71   70   71 1   
    72   70   74 1   
    73   70   75 1   
    74   71   72 2   
    75   71   76 1   
    76   76   77 1   
    77   76   85 1   
    78   77   78 1   
    79   77   80 1   
    80   77   86 1   
    81   78   79 2   
    82   78   93 1   
    83   80   81 1   
    84   80   87 1   
    85   80   88 1   
    86   81   82 1   
    87   81   89 1   
    88   81   90 1   
    89   82   83 1   
    90   82   84 2   
    91   83   91 1   
    92   83   92 1   
    93   93   94 1   
    94   93  100 1   
    95   94   95 1   
    96   94   97 1   
    97   94  101 1   
    98   95   96 2   
    99   95  109 1   
   100   97   98 1   
   101   97   99 1   
   102   97  102 1   
   103   98  103 1   
   104   98  104 1   
   105   98  105 1   
   106   99  106 1   
   107   99  107 1   
   108   99  108 1   
   109  109  110 1   
   110  109  117 1   
   111  110  111 1   
   112  110  113 1   
   113  110  118 1   
   114  111  112 2   
   115  111  123 1   
   116  113  114 1   
   117  113  119 1   
   118  113  120 1   
   119  114  115 1   
   120  114  116 2   
   121  115  121 1   
   122  115  122 1   
   123  123  124 1   
   124  123  135 1   
   125  124  125 1   
   126  124  127 1   
   127  124  136 1   
   128  125  126 2   
   129  125  144 1   
   130  127  128 1   
   131  127  137 1   
   132  127  138 1   
   133  128  129 ar  
   134  128  130 ar  
   135  129  131 ar  
   136  129  139 1   
   137  130  132 ar  
   138  130  140 1   
   139  131  133 ar  
   140  131  141 1   
   141  132  133 ar  
   142  132  142 1   
   143  133  134 1   
   144  134  143 1   
   145  144  145 1   
   146  144  153 1   
   147  145  146 1   
   148  145  148 1   
   149  145  154 1   
   150  146  147 2   
   151  146  159 1   
   152  148  149 1   
   153  148  155 1   
   154  148  156 1   
   155  149  150 1   
   156  149  157 1   
   157  149  158 1   
   158  150  151 1   
   159  150  152 1   
   160  159  160 1   
   161  159  168 1   
   162  160  161 1   
   163  160  163 1   
   164  160  169 1   
   165  161  162 2   
   166  161  174 1   
   167  163  164 1   
   168  163  170 1   
   169  163  171 1   
   170  164  165 1   
   171  164  172 1   
   172  164  173 1   
   173  165  166 1   
   174  165  167 1   
   175  174  175 1   
   176  174  179 1   
   177  175  176 1   
   178  175  177 1   
   179  175  178 1   
   180  181  182 1   
   181  181  183 1   
   182  184  185 1   
   183  184  186 1   
   184  187  188 1   
   185  187  189 1   
   186  190  192 1   
   187  190  194 1   
   188  191  193 1   
   189  191  195 1   
@<TRIPOS>SUBSTRUCTURE
     1 MOL         1 TEMP              0 ****  ****    0 ROOT
