@<TRIPOS>MOLECULE
MOL
  192   187     1     0     0
SMALL
resp


@<TRIPOS>ATOM
      1 C1         11.2430    7.1050   -1.4940 c3        1 MOL     -0.226450
      2 C2         11.1700    5.6780   -0.8880 c         1 MOL      0.674167
      3 O1         12.1870    5.0530   -0.6510 o         1 MOL     -0.594552
      4 H1         12.2060    7.5530   -1.2510 hc        1 MOL      0.059393
      5 H2         11.1330    7.0460   -2.5770 hc        1 MOL      0.059393
      6 H3         10.4420    7.7170   -1.0800 hc        1 MOL      0.059393
      7 N1         10.0090    5.1270   -0.6540 n         1 MOL     -0.291065
      8 C3          9.8610    3.8340    0.0170 c3        1 MOL     -0.321923
      9 C4          8.6150    3.0600   -0.5210 c         1 MOL      0.638083
     10 O2          7.5650    3.6560   -0.8710 o         1 MOL     -0.591257
     11 C5          9.7290    3.9780    1.4950 c3        1 MOL     -0.083910
     12 C6          8.8140    5.1620    1.9190 c         1 MOL      0.748388
     13 O3          9.0710    5.8450    2.8900 o         1 MOL     -0.718724
     14 O4          7.8070    5.4470    1.2840 o         1 MOL     -0.718724
     15 H4          9.2080    5.6710   -0.9490 hn        1 MOL      0.140248
     16 H5         10.7080    3.1930   -0.2300 h1        1 MOL      0.143078
     17 H6         10.7370    4.2530    1.8270 hc        1 MOL      0.070027
     18 H7          9.4500    3.0560    1.9880 hc        1 MOL      0.070027
     19 N2          8.7920    1.7020   -0.7340 n         1 MOL     -0.461665
     20 C7          7.7770    0.7880   -1.2050 c3        1 MOL      0.090414
     21 C8          6.9720    0.1570   -0.0430 c         1 MOL      0.588906
     22 O5          7.5490   -0.1090    0.9780 o         1 MOL     -0.508274
     23 C9          8.3170   -0.3340   -2.1500 c3        1 MOL     -0.296745
     24 C10         9.5740   -1.1350   -1.6410 c3        1 MOL      0.003922
     25 C11        10.1230   -2.2300   -2.6290 c3        1 MOL      0.047521
     26 C12        11.4530   -2.9500   -2.1530 c3        1 MOL     -0.113121
     27 N3         11.2250   -3.7970   -0.9730 n4        1 MOL     -0.182865
     28 H8          9.6680    1.3400   -0.3770 hn        1 MOL      0.293657
     29 H9          7.0890    1.3440   -1.8440 h1        1 MOL      0.059076
     30 H10         8.5260    0.0420   -3.1540 hc        1 MOL      0.098189
     31 H11         7.4080   -0.9060   -2.3220 hc        1 MOL      0.098189
     32 H12         9.2760   -1.5800   -0.6880 hc        1 MOL      0.034301
     33 H13        10.3210   -0.3620   -1.4360 hc        1 MOL      0.034301
     34 H14        10.3100   -1.6990   -3.5600 hc        1 MOL      0.031864
     35 H15         9.3860   -2.9570   -2.9460 hc        1 MOL      0.031864
     36 H16        12.2490   -2.2310   -1.9960 hx        1 MOL      0.109238
     37 H17        11.6510   -3.6120   -2.9890 hx        1 MOL      0.109238
     38 H18        12.0100   -3.7950   -0.3360 hn        1 MOL      0.251960
     39 H19        10.4330   -3.5250   -0.4050 hn        1 MOL      0.251960
     40 H20        11.0240   -4.7600   -1.2220 hn        1 MOL      0.251960
     41 N4          5.6630    0.0670   -0.2310 n         1 MOL     -0.536396
     42 C13         4.7300   -0.2190    0.8860 c3        1 MOL      0.082456
     43 C14         3.2230   -0.4910    0.4680 c         1 MOL      0.459962
     44 O6          2.7870   -0.1880   -0.6580 o         1 MOL     -0.527013
     45 C15         4.6470    0.9600    1.8600 c3        1 MOL     -0.152191
     46 C16         4.8370    2.3590    1.2410 c         1 MOL      0.574181
     47 O7          5.8840    2.9990    1.5310 o         1 MOL     -0.672642
     48 O8          3.9980    2.8300    0.4550 o         1 MOL     -0.672642
     49 H21         5.2520    0.3070   -1.1240 hn        1 MOL      0.282295
     50 H22         5.0760   -1.0950    1.4450 h1        1 MOL      0.110898
     51 H23         5.3850    0.7690    2.6420 hc        1 MOL      0.074822
     52 H24         3.6990    0.9590    2.4050 hc        1 MOL      0.074822
     53 N5          2.5120   -1.2490    1.3260 n         1 MOL     -0.390177
     54 C17         2.8670   -1.9220    2.5680 c3        1 MOL     -0.171408
     55 C18         3.3760   -3.3070    2.2230 c         1 MOL      0.651983
     56 O9          3.9330   -3.5970    1.1660 o         1 MOL     -0.544563
     57 H25         1.6390   -1.4310    0.8390 hn        1 MOL      0.309633
     58 H26         2.0240   -2.0140    3.2500 h1        1 MOL      0.094056
     59 H27         3.6330   -1.3350    3.0750 h1        1 MOL      0.094056
     60 N6          3.1280   -4.2320    3.1500 n         1 MOL     -0.602518
     61 C19         3.4420   -5.6410    3.0510 c3        1 MOL      0.205504
     62 C20         2.5620   -6.3340    2.0470 c         1 MOL      0.427273
     63 O10         3.0500   -7.1090    1.2140 o         1 MOL     -0.518481
     64 C21         3.3840   -6.2750    4.4430 c3        1 MOL     -0.412984
     65 C22         4.4900   -5.8940    5.4930 c         1 MOL      0.807400
     66 O11         5.5420   -5.3230    5.2180 o         1 MOL     -0.669469
     67 O12         4.3310   -6.2360    6.6590 o         1 MOL     -0.669469
     68 H28         2.6300   -3.8850    3.9390 hn        1 MOL      0.328370
     69 H29         4.4690   -5.6490    2.6820 h1        1 MOL      0.070102
     70 H30         3.4390   -7.3620    4.3880 hc        1 MOL      0.086237
     71 H31         2.4470   -5.9320    4.8680 hc        1 MOL      0.086237
     72 N7          1.2310   -6.0870    2.0290 n         1 MOL     -0.217032
     73 C23         0.2170   -6.8070    1.2100 c3        1 MOL     -0.400143
     74 C24         0.0810   -6.2630   -0.2230 c         1 MOL      0.711446
     75 O13        -0.7550   -6.7790   -0.9390 o         1 MOL     -0.587084
     76 H32         0.9020   -5.5000    2.7790 hn        1 MOL      0.234397
     77 H33        -0.7140   -6.5700    1.7340 h1        1 MOL      0.178167
     78 H34         0.4370   -7.8590    1.0440 h1        1 MOL      0.178167
     79 N8          0.8350   -5.2420   -0.6600 n         1 MOL     -0.476684
     80 C25         0.5960   -4.4160   -1.8180 c3        1 MOL      0.126387
     81 C26         0.2770   -2.9450   -1.4770 c         1 MOL      0.340747
     82 O14         0.5910   -2.5480   -0.3310 o         1 MOL     -0.522332
     83 C27         1.7990   -4.4830   -2.7620 c3        1 MOL      0.611296
     84 C28         2.0860   -5.8330   -3.3640 c3        1 MOL     -0.413143
     85 O15         1.8180   -3.5470   -3.8270 oh        1 MOL     -0.682084
     86 H35         1.6300   -5.0130   -0.0920 hn        1 MOL      0.203441
     87 H36        -0.2650   -4.7480   -2.4000 h1        1 MOL      0.028094
     88 H37         2.6760   -4.1120   -2.2290 h1        1 MOL     -0.042094
     89 H38         2.4060   -2.8340   -3.5820 ho        1 MOL      0.378884
     90 H39         2.9480   -5.6660   -4.0080 hc        1 MOL      0.100884
     91 H40         2.3970   -6.5040   -2.5600 hc        1 MOL      0.100884
     92 H41         1.1810   -6.1890   -3.8560 hc        1 MOL      0.100884
     93 N9         -0.3220   -2.1590   -2.3160 n         1 MOL     -0.182937
     94 C29        -0.7220   -0.7130   -2.0760 c3        1 MOL     -0.472167
     95 C30        -2.0030   -0.6520   -1.1630 c         1 MOL      0.732128
     96 O16        -2.1640    0.2070   -0.3780 o         1 MOL     -0.563596
     97 C31        -0.8610    0.0600   -3.4190 c3        1 MOL      0.520038
     98 C32         0.3750   -0.0800   -4.3770 c3        1 MOL     -0.011275
     99 C33        -1.2060    1.4770   -3.2600 c3        1 MOL     -0.411627
    100 C34         0.3410    0.6670   -5.6920 c3        1 MOL     -0.177442
    101 H42        -0.3550   -2.4970   -3.2700 hn        1 MOL      0.193623
    102 H43         0.1370   -0.3670   -1.4900 h1        1 MOL      0.163664
    103 H44        -1.7110   -0.4220   -3.9040 hc        1 MOL     -0.085625
    104 H45         0.6050   -1.1200   -4.6110 hc        1 MOL      0.005357
    105 H46         1.1270    0.2940   -3.6800 hc        1 MOL      0.005357
    106 H47        -1.3990    1.9360   -4.2280 hc        1 MOL      0.096361
    107 H48        -2.1280    1.5770   -2.6890 hc        1 MOL      0.096361
    108 H49        -0.3840    2.0370   -2.8120 hc        1 MOL      0.096361
    109 H50         0.8660    0.1240   -6.4790 hc        1 MOL      0.040966
    110 H51        -0.7030    0.9100   -5.9000 hc        1 MOL      0.040966
    111 H52         0.7710    1.6660   -5.5710 hc        1 MOL      0.040966
    112 N10        -2.9170   -1.5770   -1.2920 n         1 MOL     -0.389343
    113 C35        -4.2020   -1.7040   -0.5970 c3        1 MOL     -0.164748
    114 C36        -5.2710   -1.9530   -1.5880 c         1 MOL      0.694547
    115 O17        -5.0420   -2.4120   -2.7300 o         1 MOL     -0.541744
    116 C37        -4.2290   -2.7840    0.4450 c3        1 MOL      0.401835
    117 C38        -3.5060   -4.0720   -0.0460 c3        1 MOL     -0.377337
    118 O18        -3.6860   -2.3480    1.6780 oh        1 MOL     -0.622617
    119 H53        -2.5750   -2.3090   -1.9000 hn        1 MOL      0.198292
    120 H54        -4.4390   -0.7370   -0.1720 h1        1 MOL      0.111533
    121 H55        -5.2330   -3.1430    0.6770 h1        1 MOL      0.036300
    122 H56        -2.7590   -2.2050    1.4590 ho        1 MOL      0.406813
    123 H57        -3.8090   -4.3210   -1.0700 hc        1 MOL      0.101482
    124 H58        -2.4310   -3.8940    0.0160 hc        1 MOL      0.101482
    125 H59        -3.7520   -4.8980    0.6120 hc        1 MOL      0.101482
    126 N11        -6.5030   -1.7500   -1.1350 n         1 MOL     -0.672815
    127 C39        -7.7090   -2.0610   -1.9210 c3        1 MOL      0.104368
    128 C40        -8.7200   -0.8950   -1.9520 c         1 MOL      0.581085
    129 O19        -9.1720   -0.5630   -3.0310 o         1 MOL     -0.562721
    130 C41        -8.4580   -3.2540   -1.2990 c3        1 MOL      0.324019
    131 C42        -9.8740   -3.6710   -1.7270 c3        1 MOL     -0.307511
    132 O20        -8.5540   -3.1450    0.1130 oh        1 MOL     -0.690421
    133 H60        -6.7440   -1.4260   -0.1970 hn        1 MOL      0.354009
    134 H61        -7.5360   -2.3600   -2.9430 h1        1 MOL      0.085714
    135 H62        -7.8140   -4.1120   -1.4450 h1        1 MOL      0.004892
    136 H63        -8.7680   -4.0000    0.5030 ho        1 MOL      0.431285
    137 H64       -10.4830   -2.8470   -1.3690 hc        1 MOL      0.076353
    138 H65        -9.7800   -3.7600   -2.8120 hc        1 MOL      0.076353
    139 H66       -10.1820   -4.5810   -1.2160 hc        1 MOL      0.076353
    140 N12        -8.9250   -0.1900   -0.8600 n         1 MOL     -0.345603
    141 C43        -9.8240    0.9450   -0.5850 c3        1 MOL     -0.162418
    142 C44        -9.4690    1.6140    0.6840 c         1 MOL      0.560110
    143 O21        -9.1560    1.0640    1.7070 o         1 MOL     -0.480839
    144 C45       -11.2390    0.2250   -0.4070 c3        1 MOL     -0.065099
    145 C46       -12.4180    1.2190   -0.4020 c3        1 MOL      0.201324
    146 C47       -13.8210    0.5960   -0.2790 c3        1 MOL     -0.147654
    147 C48       -14.0920   -0.0060    1.0720 c3        1 MOL      0.139057
    148 N13       -15.4470   -0.5830    1.2210 n4        1 MOL     -0.363905
    149 H67        -8.3370   -0.4790   -0.0890 hn        1 MOL      0.232870
    150 H68        -9.8490    1.6440   -1.4200 h1        1 MOL      0.132072
    151 H69       -11.2210   -0.3500    0.5170 hc        1 MOL      0.029217
    152 H70       -11.3110   -0.4120   -1.2890 hc        1 MOL      0.029217
    153 H71       -12.3810    1.9340   -1.2290 hc        1 MOL     -0.031735
    154 H72       -12.2790    1.8120    0.4930 hc        1 MOL     -0.031735
    155 H73       -13.8290   -0.2520   -0.9610 hc        1 MOL      0.050401
    156 H74       -14.4870    1.4000   -0.6040 hc        1 MOL      0.050401
    157 H75       -13.9440    0.6800    1.9010 hx        1 MOL      0.068845
    158 H76       -13.3690   -0.8050    1.2410 hx        1 MOL      0.068845
    159 H77       -15.6110   -0.9330    2.1580 hn        1 MOL      0.284543
    160 H78       -16.1560    0.1190    1.0370 hn        1 MOL      0.284543
    161 H79       -15.5770   -1.3100    0.5340 hn        1 MOL      0.284543
    162 N14        -9.5090    2.9660    0.5530 n         1 MOL     -0.527870
    163 C49        -9.0890    3.8490    1.6330 c3        1 MOL      0.339178
    164 C50        -7.5710    3.7200    1.9770 c         1 MOL      0.334475
    165 O22        -7.2950    3.4220    3.1200 o         1 MOL     -0.506688
    166 C51        -9.5220    5.3590    1.3710 c3        1 MOL      0.030061
    167 C52       -11.0200    5.5560    1.6950 c3        1 MOL     -0.187902
    168 C53       -11.6400    6.9690    1.4550 c         1 MOL      0.688548
    169 O23       -12.8630    7.0900    1.1370 o         1 MOL     -0.669933
    170 O24       -10.8770    7.9440    1.6600 o         1 MOL     -0.669933
    171 H80        -9.6310    3.3190   -0.3870 hn        1 MOL      0.298271
    172 H81        -9.6470    3.5890    2.5260 h1        1 MOL     -0.004551
    173 H82        -9.2440    5.6940    0.3700 hc        1 MOL      0.011703
    174 H83        -8.9850    5.9780    2.0900 hc        1 MOL      0.011703
    175 H84       -11.1280    5.2960    2.7470 hc        1 MOL      0.012954
    176 H85       -11.6080    4.9370    1.0280 hc        1 MOL      0.012954
    177 N15        -6.6940    3.7360    0.9800 n         1 MOL     -0.332861
    178 C54        -6.7200    4.2780   -0.3950 c3        1 MOL     -0.020462
    179 H86        -7.7140    4.1410   -0.8200 h1        1 MOL      0.042762
    180 H87        -6.4790    5.3400   -0.3720 h1        1 MOL      0.042762
    181 H88        -5.9880    3.7510   -1.0070 h1        1 MOL      0.042762
    182 H89        -5.7740    3.4470    1.2840 hn        1 MOL      0.286304
    183 Ca1         5.6720    5.1350    0.0310 Ca        1 MOL      1.784007
    184 O25         3.0850    5.4430   -0.4060 oh        1 MOL     -0.916555
    185 H90         2.4390    4.7860   -0.6480 ho        1 MOL      0.450851
    186 H91         2.6110    6.2730   -0.4420 ho        1 MOL      0.450851
    187 O26         5.0600    3.8830   -2.2210 oh        1 MOL     -0.916555
    188 H92         4.1940    3.4870   -2.2130 ho        1 MOL      0.450851
    189 H93         5.5180    3.4340   -2.9310 ho        1 MOL      0.450851
    190 O27         4.7640    6.0250    2.4350 oh        1 MOL     -0.916555
    191 H94         4.0350    6.4930    2.8300 ho        1 MOL      0.450851
    192 H95         5.2840    5.7290    3.1880 ho        1 MOL      0.450851
@<TRIPOS>BOND
     1    1    2 1   
     2    1    4 1   
     3    1    5 1   
     4    1    6 1   
     5    2    3 2   
     6    2    7 1   
     7    7    8 1   
     8    7   15 1   
     9    8    9 1   
    10    8   11 1   
    11    8   16 1   
    12    9   10 2   
    13    9   19 1   
    14   11   12 1   
    15   11   17 1   
    16   11   18 1   
    17   12   13 1   
    18   12   14 1   
    19   19   20 1   
    20   19   28 1   
    21   20   21 1   
    22   20   23 1   
    23   20   29 1   
    24   21   22 2   
    25   21   41 1   
    26   23   24 1   
    27   23   30 1   
    28   23   31 1   
    29   24   25 1   
    30   24   32 1   
    31   24   33 1   
    32   25   26 1   
    33   25   34 1   
    34   25   35 1   
    35   26   27 1   
    36   26   36 1   
    37   26   37 1   
    38   27   38 1   
    39   27   39 1   
    40   27   40 1   
    41   41   42 1   
    42   41   49 1   
    43   42   43 1   
    44   42   45 1   
    45   42   50 1   
    46   43   44 2   
    47   43   53 1   
    48   45   46 1   
    49   45   51 1   
    50   45   52 1   
    51   46   47 1   
    52   46   48 1   
    53   53   54 1   
    54   53   57 1   
    55   54   55 1   
    56   54   58 1   
    57   54   59 1   
    58   55   56 2   
    59   55   60 1   
    60   60   61 1   
    61   60   68 1   
    62   61   62 1   
    63   61   64 1   
    64   61   69 1   
    65   62   63 2   
    66   62   72 1   
    67   64   65 1   
    68   64   70 1   
    69   64   71 1   
    70   65   66 1   
    71   65   67 1   
    72   72   73 1   
    73   72   76 1   
    74   73   74 1   
    75   73   77 1   
    76   73   78 1   
    77   74   75 2   
    78   74   79 1   
    79   79   80 1   
    80   79   86 1   
    81   80   81 1   
    82   80   83 1   
    83   80   87 1   
    84   81   82 2   
    85   81   93 1   
    86   83   84 1   
    87   83   85 1   
    88   83   88 1   
    89   84   90 1   
    90   84   91 1   
    91   84   92 1   
    92   85   89 1   
    93   93   94 1   
    94   93  101 1   
    95   94   95 1   
    96   94   97 1   
    97   94  102 1   
    98   95   96 2   
    99   95  112 1   
   100   97   98 1   
   101   97   99 1   
   102   97  103 1   
   103   98  100 1   
   104   98  104 1   
   105   98  105 1   
   106   99  106 1   
   107   99  107 1   
   108   99  108 1   
   109  100  109 1   
   110  100  110 1   
   111  100  111 1   
   112  112  113 1   
   113  112  119 1   
   114  113  114 1   
   115  113  116 1   
   116  113  120 1   
   117  114  115 2   
   118  114  126 1   
   119  116  117 1   
   120  116  118 1   
   121  116  121 1   
   122  117  123 1   
   123  117  124 1   
   124  117  125 1   
   125  118  122 1   
   126  126  127 1   
   127  126  133 1   
   128  127  128 1   
   129  127  130 1   
   130  127  134 1   
   131  128  129 2   
   132  128  140 1   
   133  130  131 1   
   134  130  132 1   
   135  130  135 1   
   136  131  137 1   
   137  131  138 1   
   138  131  139 1   
   139  132  136 1   
   140  140  141 1   
   141  140  149 1   
   142  141  142 1   
   143  141  144 1   
   144  141  150 1   
   145  142  143 2   
   146  142  162 1   
   147  144  145 1   
   148  144  151 1   
   149  144  152 1   
   150  145  146 1   
   151  145  153 1   
   152  145  154 1   
   153  146  147 1   
   154  146  155 1   
   155  146  156 1   
   156  147  148 1   
   157  147  157 1   
   158  147  158 1   
   159  148  159 1   
   160  148  160 1   
   161  148  161 1   
   162  162  163 1   
   163  162  171 1   
   164  163  164 1   
   165  163  166 1   
   166  163  172 1   
   167  164  165 2   
   168  164  177 1   
   169  166  167 1   
   170  166  173 1   
   171  166  174 1   
   172  167  168 1   
   173  167  175 1   
   174  167  176 1   
   175  168  169 1   
   176  168  170 1   
   177  177  178 1   
   178  177  182 1   
   179  178  179 1   
   180  178  180 1   
   181  178  181 1   
   182  184  185 1   
   183  184  186 1   
   184  187  188 1   
   185  187  189 1   
   186  190  191 1   
   187  190  192 1   
@<TRIPOS>SUBSTRUCTURE
     1 MOL         1 TEMP              0 ****  ****    0 ROOT
