@<TRIPOS>MOLECULE
MOL
  201   193     1     0     0
SMALL
resp


@<TRIPOS>ATOM
      1 C1          9.4840    5.7760    1.6590 c3        1 MOL     -0.312244
      2 C2          9.0130    4.7540    0.6340 c         1 MOL      0.611027
      3 O1          7.8450    4.6560    0.1510 o         1 MOL     -0.582208
      4 H1          8.7940    6.6190    1.6740 hc        1 MOL      0.092775
      5 H2          9.5150    5.3140    2.6450 hc        1 MOL      0.092775
      6 H3         10.4800    6.1270    1.3900 hc        1 MOL      0.092775
      7 N1          9.9180    3.7820    0.3680 n         1 MOL     -0.433726
      8 C3          9.7970    2.6560   -0.5850 c3        1 MOL     -0.033417
      9 C4          8.5140    1.8480   -0.4060 c         1 MOL      0.628568
     10 O2          8.1020    1.4980    0.6690 o         1 MOL     -0.596654
     11 C5         10.9700    1.7000   -0.5870 c3        1 MOL     -0.223285
     12 C6         11.3160    1.1140    0.7860 c         1 MOL      0.800624
     13 O3         10.6950    0.0500    1.1710 o         1 MOL     -0.715546
     14 O4         12.1980    1.6580    1.5200 o         1 MOL     -0.715546
     15 H4         10.6980    3.6660    0.9960 hn        1 MOL      0.240751
     16 H5          9.9480    2.9880   -1.6160 h1        1 MOL      0.093367
     17 H6         11.8490    2.2410   -0.9300 hc        1 MOL      0.083492
     18 H7         10.7490    0.8190   -1.1810 hc        1 MOL      0.083492
     19 N2          7.8700    1.5280   -1.5430 n         1 MOL     -0.521641
     20 C7          6.6700    0.7060   -1.5470 c3        1 MOL      0.159886
     21 C8          6.8370   -0.7970   -1.4360 c         1 MOL      0.525389
     22 O5          5.9510   -1.5360   -1.5660 o         1 MOL     -0.543558
     23 C9          5.9320    1.1320   -2.8410 c3        1 MOL     -0.186118
     24 C10         5.5050    2.6530   -2.9610 c3        1 MOL      0.081343
     25 C11         4.8220    2.8030   -4.3020 c3        1 MOL      0.010903
     26 C12         4.5250    4.3160   -4.5610 c3        1 MOL      0.137926
     27 N3          3.8810    4.5930   -5.8740 n4        1 MOL     -0.170432
     28 H8          8.0720    1.9730   -2.4270 hn        1 MOL      0.303142
     29 H9          6.0550    0.9510   -0.6780 h1        1 MOL      0.056083
     30 H10         4.9740    0.6040   -2.8550 hc        1 MOL      0.066455
     31 H11         6.5490    0.8070   -3.6820 hc        1 MOL      0.066455
     32 H12         6.3740    3.2940   -2.8290 hc        1 MOL      0.000035
     33 H13         4.7620    2.8040   -2.1870 hc        1 MOL      0.000035
     34 H14         3.8830    2.2400   -4.2710 hc        1 MOL      0.019860
     35 H15         5.4810    2.4480   -5.0920 hc        1 MOL      0.019860
     36 H16         5.4330    4.9040   -4.4470 hx        1 MOL      0.014694
     37 H17         3.8340    4.6570   -3.8030 hx        1 MOL      0.014694
     38 H18         2.8760    4.6400   -5.8180 hn        1 MOL      0.196841
     39 H19         4.0660    5.5530   -6.1210 hn        1 MOL      0.196841
     40 H20         4.2410    4.0170   -6.6280 hn        1 MOL      0.196841
     41 N4          8.1080   -1.2090   -1.1540 n         1 MOL     -0.348683
     42 C13         8.5980   -2.5890   -1.1390 c3        1 MOL      0.312188
     43 C14         8.6690   -2.9740    0.3150 c         1 MOL      0.424544
     44 O6          9.0690   -2.2360    1.2060 o         1 MOL     -0.544894
     45 C15         9.9070   -2.7890   -1.8600 c3        1 MOL     -0.393573
     46 C16         9.7460   -2.5230   -3.3660 c         1 MOL      0.738273
     47 O7          8.7910   -3.0610   -3.9490 o         1 MOL     -0.672284
     48 O8         10.5470   -1.7470   -3.9250 o         1 MOL     -0.672284
     49 H21         8.7020   -0.4210   -0.9450 hn        1 MOL      0.128994
     50 H22         7.8070   -3.1630   -1.6010 h1        1 MOL      0.073481
     51 H23        10.1620   -3.8290   -1.6700 hc        1 MOL      0.093126
     52 H24        10.7050   -2.2150   -1.3770 hc        1 MOL      0.093126
     53 N5          8.3410   -4.2080    0.6410 n         1 MOL     -0.360855
     54 C17         7.8650   -5.3340   -0.1150 c3        1 MOL     -0.263044
     55 C18         6.3920   -5.2000   -0.5970 c         1 MOL      0.531713
     56 O9          6.0280   -5.5290   -1.7280 o         1 MOL     -0.503696
     57 H25         8.3840   -4.3720    1.6370 hn        1 MOL      0.291412
     58 H26         8.0800   -6.2110    0.4990 h1        1 MOL      0.142934
     59 H27         8.5310   -5.5410   -0.9600 h1        1 MOL      0.142934
     60 N6          5.5440   -4.5510    0.1700 n         1 MOL     -0.387730
     61 C19         4.1820   -4.2090   -0.2210 c3        1 MOL      0.071205
     62 C20         3.7700   -2.9190    0.4280 c         1 MOL      0.566679
     63 O10         4.4150   -2.4190    1.3250 o         1 MOL     -0.601245
     64 C21         3.1040   -5.2970    0.1370 c3        1 MOL     -0.153149
     65 C22         3.4020   -6.0280    1.4530 c         1 MOL      0.643634
     66 O11         3.7340   -7.2480    1.4580 o         1 MOL     -0.627146
     67 O12         3.2020   -5.4800    2.5480 o         1 MOL     -0.627146
     68 H28         5.8540   -4.1160    1.0200 hn        1 MOL      0.270202
     69 H29         4.0100   -3.9990   -1.2740 h1        1 MOL      0.080494
     70 H30         3.1100   -6.0000   -0.6900 hc        1 MOL      0.046953
     71 H31         2.0980   -4.8780    0.1390 hc        1 MOL      0.046953
     72 N7          2.7130   -2.2480   -0.0880 n         1 MOL     -0.329938
     73 C23         2.2480   -0.9090    0.3080 c3        1 MOL     -0.091543
     74 C24         1.0830   -0.3220   -0.4240 c         1 MOL      0.590381
     75 O13         0.1320   -1.0260   -0.8690 o         1 MOL     -0.480085
     76 H32         2.0860   -2.8070   -0.6530 hn        1 MOL      0.217007
     77 H33         3.1590   -0.3150    0.1720 h1        1 MOL      0.074417
     78 H34         2.0590   -0.8900    1.3840 h1        1 MOL      0.074417
     79 N8          1.0140    1.0060   -0.5460 n         1 MOL     -0.455238
     80 C25        -0.1460    1.7360   -1.1340 c3        1 MOL     -0.070437
     81 C26        -1.0800    2.1700    0.0430 c         1 MOL      0.511071
     82 O14        -1.1260    1.6170    1.1080 o         1 MOL     -0.455930
     83 C27         0.3950    2.8230   -2.1090 c3        1 MOL      0.314272
     84 C28         1.2700    3.9090   -1.4580 c3        1 MOL     -0.271916
     85 O15         1.1890    2.3350   -3.1520 oh        1 MOL     -0.478571
     86 H35         1.7360    1.6000   -0.1540 hn        1 MOL      0.278188
     87 H36        -0.6980    1.0190   -1.7400 h1        1 MOL      0.075165
     88 H37        -0.4320    3.4340   -2.4710 h1        1 MOL     -0.003977
     89 H38         0.9200    2.8360   -3.9190 ho        1 MOL      0.286132
     90 H39         2.1420    3.3940   -1.0520 hc        1 MOL      0.054952
     91 H40         1.5830    4.5450   -2.2840 hc        1 MOL      0.054952
     92 H41         0.7720    4.4800   -0.6770 hc        1 MOL      0.054952
     93 N9         -2.0260    3.1020   -0.2340 n         1 MOL     -0.387872
     94 C29        -3.0750    3.4260    0.7370 c3        1 MOL     -0.030237
     95 C30        -4.2920    2.4370    0.9030 c         1 MOL      0.659422
     96 O16        -4.7330    2.1310    1.9890 o         1 MOL     -0.537293
     97 C31        -3.5890    4.8870    0.4640 c3        1 MOL      0.056725
     98 C32        -2.3890    5.8480    0.4810 c3        1 MOL      0.059950
     99 C33        -4.7360    5.3510    1.3570 c3        1 MOL     -0.397016
    100 C34        -2.6960    7.3750    0.0790 c3        1 MOL     -0.311134
    101 H42        -2.0340    3.5320   -1.1400 hn        1 MOL      0.220671
    102 H43        -2.5950    3.4190    1.7180 h1        1 MOL      0.083817
    103 H44        -3.9740    4.9600   -0.5430 hc        1 MOL      0.029191
    104 H45        -1.6200    5.5320   -0.2110 hc        1 MOL      0.020040
    105 H46        -1.9080    5.8180    1.4620 hc        1 MOL      0.020040
    106 H47        -5.5370    4.6040    1.4290 hc        1 MOL      0.116058
    107 H48        -4.2500    5.4250    2.3300 hc        1 MOL      0.116058
    108 H49        -5.1080    6.2940    0.9580 hc        1 MOL      0.116058
    109 H50        -3.1220    7.4280   -0.9230 hc        1 MOL      0.080271
    110 H51        -3.3300    7.8780    0.8050 hc        1 MOL      0.080271
    111 H52        -1.7470    7.9110    0.1000 hc        1 MOL      0.080271
    112 N10        -4.7220    1.8380   -0.2020 n         1 MOL     -0.417365
    113 C35        -5.4970    0.6680   -0.3270 c3        1 MOL     -0.035398
    114 C36        -6.2400    0.6860   -1.7020 c         1 MOL      0.486919
    115 O17        -5.7210    1.0930   -2.7410 o         1 MOL     -0.503518
    116 C37        -4.6490   -0.6470   -0.3210 c3        1 MOL      0.310511
    117 C38        -3.4500   -0.6840   -1.2360 c3        1 MOL     -0.112993
    118 O18        -4.0890   -0.9220    0.9660 oh        1 MOL     -0.524465
    119 H53        -4.3930    2.1710   -1.0980 hn        1 MOL      0.181417
    120 H54        -6.2380    0.7290    0.4710 h1        1 MOL      0.061941
    121 H55        -5.2570   -1.4840   -0.6580 h1        1 MOL     -0.001341
    122 H56        -4.7830   -1.4030    1.4120 ho        1 MOL      0.348430
    123 H57        -2.8370   -1.5470   -0.9840 hc        1 MOL      0.043809
    124 H58        -3.7520   -0.9220   -2.2480 hc        1 MOL      0.043809
    125 H59        -2.8630    0.2290   -1.1490 hc        1 MOL      0.043809
    126 N11        -7.4300    0.0750   -1.6590 n         1 MOL     -0.278682
    127 C39        -8.2410   -0.2680   -2.8160 c3        1 MOL     -0.340776
    128 C40        -9.7420   -0.5370   -2.6020 c         1 MOL      0.726301
    129 O19       -10.5230   -0.2670   -3.5070 o         1 MOL     -0.551136
    130 C41        -7.6360   -1.5110   -3.5740 c3        1 MOL      0.362025
    131 C42        -8.1050   -2.8750   -3.0950 c3        1 MOL     -0.216909
    132 O20        -6.2270   -1.5330   -3.5460 oh        1 MOL     -0.593025
    133 H60        -7.7080   -0.3370   -0.7760 hn        1 MOL      0.198863
    134 H61        -8.1520    0.5700   -3.5080 h1        1 MOL      0.153902
    135 H62        -7.8620   -1.4640   -4.6440 h1        1 MOL     -0.003286
    136 H63        -5.8280   -0.7880   -4.0130 ho        1 MOL      0.402014
    137 H64        -9.1370   -3.0690   -3.3940 hc        1 MOL      0.068354
    138 H65        -7.5460   -3.6780   -3.5910 hc        1 MOL      0.068354
    139 H66        -8.1390   -2.9490   -2.0090 hc        1 MOL      0.068354
    140 N12       -10.0850   -0.9570   -1.3760 n         1 MOL     -0.561074
    141 C43       -11.5300   -0.9120   -0.9240 c3        1 MOL     -0.219472
    142 C44       -11.6440   -1.1870    0.5890 c         1 MOL      0.560303
    143 O21       -11.3050   -2.2790    1.0290 o         1 MOL     -0.505609
    144 C45       -12.4760   -1.9190   -1.6730 c3        1 MOL     -0.035805
    145 C46       -13.8830   -1.4140   -1.7100 c3        1 MOL      0.150687
    146 C47       -14.6920   -2.4930   -2.4670 c3        1 MOL     -0.157624
    147 C48       -16.1070   -1.9430   -2.6670 c3        1 MOL      0.311003
    148 N13       -17.0660   -2.8840   -3.2700 n4        1 MOL     -0.388366
    149 H67        -9.4220   -1.0780   -0.6330 hn        1 MOL      0.388403
    150 H68       -11.9070    0.0790   -1.1870 h1        1 MOL      0.127455
    151 H69       -12.4340   -2.8910   -1.1860 hc        1 MOL      0.056912
    152 H70       -12.0780   -2.0220   -2.6820 hc        1 MOL      0.056912
    153 H71       -13.8810   -0.4760   -2.2800 hc        1 MOL     -0.024350
    154 H72       -14.2460   -1.2570   -0.6850 hc        1 MOL     -0.024350
    155 H73       -14.7300   -3.4320   -1.9070 hc        1 MOL      0.045527
    156 H74       -14.3620   -2.6340   -3.4930 hc        1 MOL      0.045527
    157 H75       -16.1280   -0.9830   -3.1820 hx        1 MOL      0.002244
    158 H76       -16.5340   -1.6750   -1.6910 hx        1 MOL      0.002244
    159 H77       -17.1580   -3.6990   -2.6720 hn        1 MOL      0.281467
    160 H78       -17.9710   -2.4690   -3.4290 hn        1 MOL      0.281467
    161 H79       -16.7410   -3.0920   -4.1990 hn        1 MOL      0.281467
    162 N14       -12.0550   -0.2470    1.4110 n         1 MOL     -0.258860
    163 C49       -11.9540   -0.3450    2.8860 c3        1 MOL      0.102363
    164 C50       -10.6450    0.1330    3.4430 c         1 MOL      0.335125
    165 O22        -9.9050   -0.6960    4.0100 o         1 MOL     -0.514408
    166 C51       -13.1490    0.3460    3.6420 c3        1 MOL     -0.193252
    167 C52       -14.4300   -0.4520    3.8250 c3        1 MOL     -0.346308
    168 C53       -15.5740    0.3850    4.3280 c         1 MOL      0.724490
    169 O23       -15.7800    0.3280    5.5250 o         1 MOL     -0.683613
    170 O24       -16.0970    1.2450    3.5140 o         1 MOL     -0.683613
    171 H80       -12.6210    0.4300    0.9240 hn        1 MOL      0.194868
    172 H81       -11.9260   -1.3930    3.1830 h1        1 MOL      0.075777
    173 H82       -13.3730    1.3520    3.3030 hc        1 MOL      0.146746
    174 H83       -12.8620    0.5560    4.6690 hc        1 MOL      0.146746
    175 H84       -14.2760   -1.3360    4.4470 hc        1 MOL      0.079821
    176 H85       -14.7220   -0.9450    2.9020 hc        1 MOL      0.079821
    177 N15       -10.0830    1.2540    3.0750 n         1 MOL     -0.357331
    178 C54       -10.7390    2.4390    2.5080 c3        1 MOL      0.029304
    179 H86       -10.1120    3.3150    2.6750 h1        1 MOL      0.023117
    180 H87       -10.8860    2.2970    1.4370 h1        1 MOL      0.023117
    181 H88       -11.7040    2.5870    2.9910 h1        1 MOL      0.023117
    182 H89        -9.1910    1.4240    3.5120 hn        1 MOL      0.308579
    183 Ca1         8.6460   -0.1960    2.8760 Ca        1 MOL      1.647645
    184 O25         7.0880    1.8850    3.2980 oh        1 MOL     -0.803557
    185 H90         6.8090    2.5630    3.9070 ho        1 MOL      0.402831
    186 H91         6.6200    2.0800    2.4830 ho        1 MOL      0.402831
    187 O26        10.8520   -1.1200    4.1980 oh        1 MOL     -0.803557
    188 H92        11.6240   -0.5880    4.0000 ho        1 MOL      0.402831
    189 H93        10.7990   -1.1170    5.1520 ho        1 MOL      0.402831
    190 O27        10.2900    1.8270    3.6750 oh        1 MOL     -0.803557
    191 H94        11.2020    1.9330    3.4370 ho        1 MOL      0.402831
    192 H95        10.1820    2.3020    4.4930 ho        1 MOL      0.402831
    193 O28         7.8340   -2.7020    3.7940 oh        1 MOL     -0.803557
    194 H96         8.3340   -3.1990    4.4380 ho        1 MOL      0.402831
    195 H97         7.0170   -3.1800    3.7040 ho        1 MOL      0.402831
    196 O29         6.1570   -0.5730    2.0530 oh        1 MOL     -0.803557
    197 H98         5.5730   -1.2930    1.7920 ho        1 MOL      0.402831
    198 H99         5.6350   -0.0470    2.6520 ho        1 MOL      0.402831
    199 O30         7.7650   -0.1970    5.4280 oh        1 MOL     -0.803557
    200 H100        7.4260    0.5230    5.9630 ho        1 MOL      0.402831
    201 H101        7.1850   -0.9370    5.6090 ho        1 MOL      0.402831
@<TRIPOS>BOND
     1    1    2 1   
     2    1    4 1   
     3    1    5 1   
     4    1    6 1   
     5    2    3 2   
     6    2    7 1   
     7    7    8 1   
     8    7   15 1   
     9    8    9 1   
    10    8   11 1   
    11    8   16 1   
    12    9   10 2   
    13    9   19 1   
    14   11   12 1   
    15   11   17 1   
    16   11   18 1   
    17   12   13 1   
    18   12   14 1   
    19   19   20 1   
    20   19   28 1   
    21   20   21 1   
    22   20   23 1   
    23   20   29 1   
    24   21   22 2   
    25   21   41 1   
    26   23   24 1   
    27   23   30 1   
    28   23   31 1   
    29   24   25 1   
    30   24   32 1   
    31   24   33 1   
    32   25   26 1   
    33   25   34 1   
    34   25   35 1   
    35   26   27 1   
    36   26   36 1   
    37   26   37 1   
    38   27   38 1   
    39   27   39 1   
    40   27   40 1   
    41   41   42 1   
    42   41   49 1   
    43   42   43 1   
    44   42   45 1   
    45   42   50 1   
    46   43   44 2   
    47   43   53 1   
    48   45   46 1   
    49   45   51 1   
    50   45   52 1   
    51   46   47 1   
    52   46   48 1   
    53   53   54 1   
    54   53   57 1   
    55   54   55 1   
    56   54   58 1   
    57   54   59 1   
    58   55   56 2   
    59   55   60 1   
    60   60   61 1   
    61   60   68 1   
    62   61   62 1   
    63   61   64 1   
    64   61   69 1   
    65   62   63 2   
    66   62   72 1   
    67   64   65 1   
    68   64   70 1   
    69   64   71 1   
    70   65   66 1   
    71   65   67 1   
    72   72   73 1   
    73   72   76 1   
    74   73   74 1   
    75   73   77 1   
    76   73   78 1   
    77   74   75 2   
    78   74   79 1   
    79   79   80 1   
    80   79   86 1   
    81   80   81 1   
    82   80   83 1   
    83   80   87 1   
    84   81   82 2   
    85   81   93 1   
    86   83   84 1   
    87   83   85 1   
    88   83   88 1   
    89   84   90 1   
    90   84   91 1   
    91   84   92 1   
    92   85   89 1   
    93   93   94 1   
    94   93  101 1   
    95   94   95 1   
    96   94   97 1   
    97   94  102 1   
    98   95   96 2   
    99   95  112 1   
   100   97   98 1   
   101   97   99 1   
   102   97  103 1   
   103   98  100 1   
   104   98  104 1   
   105   98  105 1   
   106   99  106 1   
   107   99  107 1   
   108   99  108 1   
   109  100  109 1   
   110  100  110 1   
   111  100  111 1   
   112  112  113 1   
   113  112  119 1   
   114  113  114 1   
   115  113  116 1   
   116  113  120 1   
   117  114  115 2   
   118  114  126 1   
   119  116  117 1   
   120  116  118 1   
   121  116  121 1   
   122  117  123 1   
   123  117  124 1   
   124  117  125 1   
   125  118  122 1   
   126  126  127 1   
   127  126  133 1   
   128  127  128 1   
   129  127  130 1   
   130  127  134 1   
   131  128  129 2   
   132  128  140 1   
   133  130  131 1   
   134  130  132 1   
   135  130  135 1   
   136  131  137 1   
   137  131  138 1   
   138  131  139 1   
   139  132  136 1   
   140  140  141 1   
   141  140  149 1   
   142  141  142 1   
   143  141  144 1   
   144  141  150 1   
   145  142  143 2   
   146  142  162 1   
   147  144  145 1   
   148  144  151 1   
   149  144  152 1   
   150  145  146 1   
   151  145  153 1   
   152  145  154 1   
   153  146  147 1   
   154  146  155 1   
   155  146  156 1   
   156  147  148 1   
   157  147  157 1   
   158  147  158 1   
   159  148  159 1   
   160  148  160 1   
   161  148  161 1   
   162  162  163 1   
   163  162  171 1   
   164  163  164 1   
   165  163  166 1   
   166  163  172 1   
   167  164  165 2   
   168  164  177 1   
   169  166  167 1   
   170  166  173 1   
   171  166  174 1   
   172  167  168 1   
   173  167  175 1   
   174  167  176 1   
   175  168  169 1   
   176  168  170 1   
   177  177  178 1   
   178  177  182 1   
   179  178  179 1   
   180  178  180 1   
   181  178  181 1   
   182  184  185 1   
   183  184  186 1   
   184  187  188 1   
   185  187  189 1   
   186  190  191 1   
   187  190  192 1   
   188  193  194 1   
   189  193  195 1   
   190  196  197 1   
   191  196  198 1   
   192  199  200 1   
   193  199  201 1   
@<TRIPOS>SUBSTRUCTURE
     1 MOL         1 TEMP              0 ****  ****    0 ROOT
