@<TRIPOS>MOLECULE
MOL
  192   187     1     0     0
SMALL
resp


@<TRIPOS>ATOM
      1 C1          9.1550    1.7500    1.8210 c3        1 MOL     -0.461648
      2 C2          8.1080    1.1890    0.8460 c         1 MOL      0.718092
      3 O1          6.9150    0.9710    1.1910 o         1 MOL     -0.706602
      4 H1          8.8540    1.5260    2.8440 hc        1 MOL      0.117003
      5 H2         10.1230    1.2930    1.6180 hc        1 MOL      0.117003
      6 H3          9.2290    2.8300    1.6930 hc        1 MOL      0.117003
      7 N1          8.6210    0.8100   -0.3220 n         1 MOL     -0.453022
      8 C3          7.7860    0.3720   -1.4600 c3        1 MOL     -0.001892
      9 C4          7.4780   -1.1580   -1.4160 c         1 MOL      0.369193
     10 O2          7.7560   -1.8720   -2.4190 o         1 MOL     -0.483884
     11 C5          8.5180    0.7800   -2.7870 c3        1 MOL     -0.301471
     12 C6         10.0520    0.4740   -2.9330 c         1 MOL      0.796893
     13 O3         10.5620    0.7780   -4.0060 o         1 MOL     -0.673822
     14 O4         10.7270    0.0640   -1.9890 o         1 MOL     -0.673822
     15 H4          9.6090    0.8160   -0.5190 hn        1 MOL      0.251014
     16 H5          6.8070    0.8530   -1.5560 h1        1 MOL      0.131900
     17 H6          8.4560    1.8700   -2.7840 hc        1 MOL      0.090432
     18 H7          8.0180    0.3660   -3.6560 hc        1 MOL      0.090432
     19 N2          6.8820   -1.6320   -0.3720 n         1 MOL     -0.102408
     20 C7          6.4440   -2.9800   -0.1270 c3        1 MOL      0.051287
     21 C8          4.9520   -3.4040   -0.3400 c         1 MOL      0.533440
     22 O5          4.6850   -4.4620   -0.9720 o         1 MOL     -0.554419
     23 C9          6.8120   -3.3840    1.3300 c3        1 MOL      0.094322
     24 C10         8.3300   -3.1450    1.6960 c3        1 MOL     -0.268015
     25 C11         8.6700   -3.9570    2.9190 c3        1 MOL      0.027558
     26 C12        10.0980   -3.6460    3.3810 c3        1 MOL      0.020813
     27 N3         10.3480   -4.0480    4.7950 n4        1 MOL     -0.283246
     28 H8          6.7150   -1.0040    0.4000 hn        1 MOL      0.199402
     29 H9          6.9740   -3.6220   -0.8210 h1        1 MOL      0.039576
     30 H10         6.5210   -4.4040    1.5340 hc        1 MOL     -0.017207
     31 H11         6.2210   -2.8410    2.0640 hc        1 MOL     -0.017207
     32 H12         8.5770   -2.0880    1.6660 hc        1 MOL      0.083348
     33 H13         8.9500   -3.5330    0.8890 hc        1 MOL      0.083348
     34 H14         8.7430   -5.0180    2.6830 hc        1 MOL      0.039616
     35 H15         7.9320   -3.8330    3.7020 hc        1 MOL      0.039616
     36 H16        10.1870   -2.5730    3.2520 hx        1 MOL      0.088250
     37 H17        10.7930   -4.1560    2.7180 hx        1 MOL      0.088250
     38 H18        10.5020   -5.0460    4.7810 hn        1 MOL      0.266532
     39 H19        11.1990   -3.5850    5.0840 hn        1 MOL      0.266532
     40 H20         9.5720   -3.9040    5.4170 hn        1 MOL      0.266532
     41 N4          3.9310   -2.7200    0.1310 n         1 MOL     -0.515535
     42 C13         3.9070   -1.4870    0.9630 c3        1 MOL      0.175927
     43 C14         3.9060   -0.2190    0.0750 c         1 MOL      0.064385
     44 O6          3.9230   -0.2730   -1.1360 o         1 MOL     -0.383810
     45 C15         2.6720   -1.6490    1.8670 c3        1 MOL     -0.350144
     46 C16         1.3870   -1.8890    1.0790 c         1 MOL      0.703436
     47 O7          0.8580   -0.9200    0.4530 o         1 MOL     -0.665229
     48 O8          1.1000   -3.1040    0.9260 o         1 MOL     -0.665229
     49 H21         3.0440   -3.0130   -0.2420 hn        1 MOL      0.394481
     50 H22         4.7820   -1.3850    1.5990 h1        1 MOL      0.088178
     51 H23         2.5180   -0.8030    2.5390 hc        1 MOL      0.068762
     52 H24         2.8210   -2.5010    2.5360 hc        1 MOL      0.068762
     53 N5          3.8660    0.9400    0.6840 n         1 MOL     -0.159126
     54 C17         3.8510    2.2750    0.1000 c3        1 MOL      0.006854
     55 C18         2.5620    2.7010   -0.5990 c         1 MOL      0.305682
     56 O9          1.5450    2.0260   -0.5390 o         1 MOL     -0.281178
     57 H25         3.9450    0.8950    1.6970 hn        1 MOL      0.253410
     58 H26         4.5690    2.2680   -0.7190 h1        1 MOL      0.080160
     59 H27         4.2450    3.0500    0.7560 h1        1 MOL      0.080160
     60 N6          2.5520    3.7480   -1.3950 n         1 MOL     -0.346778
     61 C19         1.4620    4.3720   -2.1040 c3        1 MOL      0.211542
     62 C20         1.4970    5.9850   -2.0930 c         1 MOL      0.422955
     63 O10         2.5930    6.5750   -2.0550 o         1 MOL     -0.514432
     64 C21         1.3480    3.9100   -3.5620 c3        1 MOL     -0.400601
     65 C22         1.1640    2.3210   -3.6380 c         1 MOL      0.783874
     66 O11         2.0430    1.6050   -4.1270 o         1 MOL     -0.690282
     67 O12         0.0810    1.8990   -3.2430 o         1 MOL     -0.690282
     68 H28         3.3440    4.3800   -1.3140 hn        1 MOL      0.242968
     69 H29         0.5500    4.1040   -1.5690 h1        1 MOL     -0.014762
     70 H30         2.2590    4.1050   -4.1190 hc        1 MOL      0.107333
     71 H31         0.5570    4.4520   -4.0860 hc        1 MOL      0.107333
     72 N7          0.4030    6.7820   -2.2300 n         1 MOL     -0.391470
     73 C23        -1.0120    6.4510   -2.4400 c3        1 MOL     -0.033130
     74 C24        -1.6770    6.1250   -1.0980 c         1 MOL      0.732545
     75 O13        -1.2910    6.7770   -0.1190 o         1 MOL     -0.548790
     76 H32         0.5630    7.7740   -2.1520 hn        1 MOL      0.303608
     77 H33        -1.1610    5.5960   -3.0960 h1        1 MOL      0.059475
     78 H34        -1.5790    7.3250   -2.7770 h1        1 MOL      0.059475
     79 N8         -2.6460    5.1610   -1.1030 n         1 MOL     -0.888137
     80 C25        -3.1000    4.5740    0.1670 c3        1 MOL      0.331953
     81 C26        -2.0960    3.5510    0.7510 c         1 MOL      0.835108
     82 O14        -1.4770    2.8880   -0.1020 o         1 MOL     -0.665894
     83 C27        -4.6270    4.1390    0.1480 c3        1 MOL      0.446313
     84 C28        -5.4410    4.4270    1.3580 c3        1 MOL     -0.503070
     85 O15        -4.8530    2.8320   -0.3030 oh        1 MOL     -0.725666
     86 H35        -2.9420    4.7320   -1.9550 hn        1 MOL      0.404066
     87 H36        -3.1160    5.3630    0.9200 h1        1 MOL     -0.037509
     88 H37        -5.1010    4.8580   -0.5200 h1        1 MOL     -0.009259
     89 H38        -5.7960    2.7410   -0.4930 ho        1 MOL      0.428602
     90 H39        -5.0650    3.7360    2.1100 hc        1 MOL      0.126427
     91 H40        -5.2730    5.4530    1.6800 hc        1 MOL      0.126427
     92 H41        -6.4720    4.4120    0.9890 hc        1 MOL      0.126427
     93 N9         -1.9540    3.4580    2.1070 n         1 MOL     -0.850038
     94 C29        -1.1190    2.4690    2.7290 c3        1 MOL      0.252583
     95 C30        -1.6140    1.0280    2.3730 c         1 MOL      0.471893
     96 O16        -1.7430    0.6060    1.2390 o         1 MOL     -0.545375
     97 C31         0.4070    2.6790    2.6850 c3        1 MOL      0.647732
     98 C32         0.8570    4.1210    3.0320 c3        1 MOL     -0.104109
     99 C33         1.0850    1.6940    3.5330 c3        1 MOL     -0.395918
    100 C34         0.6300    4.5220    4.5270 c3        1 MOL     -0.237444
    101 H42        -2.7040    3.7800    2.7040 hn        1 MOL      0.365433
    102 H43        -1.2730    2.5400    3.8040 h1        1 MOL     -0.044076
    103 H44         0.6810    2.3570    1.6770 hc        1 MOL     -0.351860
    104 H45         0.3880    4.8470    2.3750 hc        1 MOL      0.048829
    105 H46         1.9230    4.2360    2.8450 hc        1 MOL      0.048829
    106 H47         0.8520    0.6890    3.1860 hc        1 MOL      0.070313
    107 H48         2.1470    1.9290    3.4650 hc        1 MOL      0.070313
    108 H49         0.7540    1.8570    4.5550 hc        1 MOL      0.070313
    109 H50         1.1000    5.5070    4.6450 hc        1 MOL      0.056473
    110 H51        -0.4230    4.5310    4.8050 hc        1 MOL      0.056473
    111 H52         1.1140    3.8350    5.2240 hc        1 MOL      0.056473
    112 N10        -1.9060    0.2310    3.3850 n         1 MOL     -0.371912
    113 C35        -2.1750   -1.2450    3.2220 c3        1 MOL     -0.410860
    114 C36        -3.6660   -1.5000    2.9190 c         1 MOL      0.736117
    115 O17        -3.9770   -2.5890    2.4270 o         1 MOL     -0.559437
    116 C37        -1.6840   -2.0540    4.3980 c3        1 MOL      0.419217
    117 C38        -2.5530   -1.9510    5.6660 c3        1 MOL     -0.391902
    118 O18        -0.3880   -1.6170    4.7470 oh        1 MOL     -0.628951
    119 H53        -1.6440    0.5380    4.3070 hn        1 MOL      0.263210
    120 H54        -1.5380   -1.5160    2.3730 h1        1 MOL      0.286527
    121 H55        -1.5960   -3.0970    4.0710 h1        1 MOL      0.019502
    122 H56         0.0820   -2.2850    5.2370 ho        1 MOL      0.419323
    123 H57        -2.4330   -0.9570    6.1040 hc        1 MOL      0.101886
    124 H58        -3.6030   -2.1510    5.4880 hc        1 MOL      0.101886
    125 H59        -2.1440   -2.6490    6.4020 hc        1 MOL      0.101886
    126 N11        -4.5520   -0.4830    2.9970 n         1 MOL     -0.480263
    127 C39        -5.8910   -0.5340    2.4100 c3        1 MOL     -0.039816
    128 C40        -5.8510   -0.9780    0.9120 c         1 MOL      0.330437
    129 O19        -5.0660   -0.5180    0.1080 o         1 MOL     -0.383326
    130 C41        -6.6160    0.8370    2.6050 c3        1 MOL      0.335737
    131 C42        -8.1400    0.9110    2.3160 c3        1 MOL     -0.290772
    132 O20        -6.5000    1.2700    3.9810 oh        1 MOL     -0.595880
    133 H60        -4.2160    0.4320    3.2720 hn        1 MOL      0.251515
    134 H61        -6.5850   -1.1670    2.9690 h1        1 MOL      0.097367
    135 H62        -6.1310    1.6350    2.0460 h1        1 MOL      0.004392
    136 H63        -5.5900    1.5220    4.1370 ho        1 MOL      0.371654
    137 H64        -8.4190    1.8390    1.8040 hc        1 MOL      0.085785
    138 H65        -8.3820    0.1740    1.5440 hc        1 MOL      0.085785
    139 H66        -8.8020    0.7950    3.1780 hc        1 MOL      0.085785
    140 N12        -6.6340   -2.0060    0.5650 n         1 MOL     -0.347775
    141 C43        -6.8680   -2.5810   -0.7830 c3        1 MOL     -0.004011
    142 C44        -5.5700   -2.7220   -1.6520 c         1 MOL      0.521761
    143 O21        -5.5770   -2.2680   -2.8120 o         1 MOL     -0.501375
    144 C45        -7.9770   -1.7030   -1.3780 c3        1 MOL     -0.024198
    145 C46        -9.3210   -1.9700   -0.6370 c3        1 MOL      0.144343
    146 C47       -10.5400   -1.2550   -1.2740 c3        1 MOL     -0.089728
    147 C48       -11.7840   -1.3820   -0.3630 c3        1 MOL      0.114554
    148 N13       -13.0640   -0.8790   -0.9920 n4        1 MOL     -0.151410
    149 H67        -7.2330   -2.3260    1.3050 hn        1 MOL      0.236793
    150 H68        -7.3190   -3.5770   -0.7740 h1        1 MOL      0.073412
    151 H69        -8.0410   -1.8490   -2.4480 hc        1 MOL      0.030015
    152 H70        -7.6290   -0.6680   -1.3440 hc        1 MOL      0.030015
    153 H71        -9.2040   -1.5140    0.3420 hc        1 MOL     -0.028072
    154 H72        -9.5120   -3.0370   -0.5790 hc        1 MOL     -0.028072
    155 H73       -10.5890   -1.7870   -2.2210 hc        1 MOL      0.034277
    156 H74       -10.2590   -0.2000   -1.3800 hc        1 MOL      0.034277
    157 H75       -11.5740   -0.8320    0.5590 hx        1 MOL      0.033762
    158 H76       -11.9830   -2.4340   -0.1300 hx        1 MOL      0.033762
    159 H77       -13.8690   -0.9550   -0.3800 hn        1 MOL      0.179556
    160 H78       -12.8810    0.0570   -1.3200 hn        1 MOL      0.179556
    161 H79       -13.3020   -1.3470   -1.8500 hn        1 MOL      0.179556
    162 N14        -4.5100   -3.3150   -1.0690 n         1 MOL     -0.458939
    163 C49        -3.1540   -3.2560   -1.6440 c3        1 MOL      0.094941
    164 C50        -2.1110   -2.9420   -0.5890 c         1 MOL      0.327355
    165 O22        -1.6490   -1.8080   -0.6160 o         1 MOL     -0.547040
    166 C51        -2.9160   -4.4890   -2.5290 c3        1 MOL     -0.230712
    167 C52        -3.5310   -4.3590   -3.9490 c3        1 MOL     -0.172357
    168 C53        -3.2150   -5.6820   -4.6770 c         1 MOL      0.664856
    169 O23        -2.1210   -5.7320   -5.3690 o         1 MOL     -0.602387
    170 O24        -4.0590   -6.6230   -4.7600 o         1 MOL     -0.602387
    171 H80        -4.6460   -3.6770   -0.1290 hn        1 MOL      0.295422
    172 H81        -3.1440   -2.3580   -2.2560 h1        1 MOL      0.183860
    173 H82        -3.2600   -5.4330   -2.1100 hc        1 MOL      0.095234
    174 H83        -1.8310   -4.5990   -2.5870 hc        1 MOL      0.095234
    175 H84        -3.1290   -3.5300   -4.5210 hc        1 MOL      0.058908
    176 H85        -4.6130   -4.2630   -3.8740 hc        1 MOL      0.058908
    177 N15        -1.6600   -3.7730    0.3920 n         1 MOL     -0.056884
    178 C54        -1.9020   -5.1700    0.6170 c3        1 MOL     -0.175184
    179 H86        -1.5280   -5.7440   -0.2320 h1        1 MOL      0.069529
    180 H87        -1.3870   -5.4870    1.5240 h1        1 MOL      0.069529
    181 H88        -2.9730   -5.3410    0.7260 h1        1 MOL      0.069529
    182 H89        -0.9590   -3.3230    0.9610 hn        1 MOL      0.216484
    183 Ca1        -0.6160    0.5800   -1.1420 Ca        1 MOL      1.719688
    184 O25         1.4320   -0.4250   -2.5900 oh        1 MOL     -0.900275
    185 H90         2.2270   -0.5250   -2.0720 ho        1 MOL      0.431578
    186 H91         1.7120    0.0670   -3.3700 ho        1 MOL      0.431578
    187 O26        -3.3570    0.8090   -1.3670 oh        1 MOL     -0.900275
    188 H92        -3.7930    0.1150   -0.8550 ho        1 MOL      0.431578
    189 H93        -3.7780    1.6170   -1.0670 ho        1 MOL      0.431578
    190 O27        -1.4610   -0.5650   -3.6670 oh        1 MOL     -0.900275
    191 H94        -0.6080   -0.8480   -3.9910 ho        1 MOL      0.431578
    192 H95        -2.0730   -0.8170   -4.3650 ho        1 MOL      0.431578
@<TRIPOS>BOND
     1    1    2 1   
     2    1    4 1   
     3    1    5 1   
     4    1    6 1   
     5    2    3 2   
     6    2    7 1   
     7    7    8 1   
     8    7   15 1   
     9    8    9 1   
    10    8   11 1   
    11    8   16 1   
    12    9   10 2   
    13    9   19 1   
    14   11   12 1   
    15   11   17 1   
    16   11   18 1   
    17   12   13 1   
    18   12   14 1   
    19   19   20 1   
    20   19   28 1   
    21   20   21 1   
    22   20   23 1   
    23   20   29 1   
    24   21   22 2   
    25   21   41 1   
    26   23   24 1   
    27   23   30 1   
    28   23   31 1   
    29   24   25 1   
    30   24   32 1   
    31   24   33 1   
    32   25   26 1   
    33   25   34 1   
    34   25   35 1   
    35   26   27 1   
    36   26   36 1   
    37   26   37 1   
    38   27   38 1   
    39   27   39 1   
    40   27   40 1   
    41   41   42 1   
    42   41   49 1   
    43   42   43 1   
    44   42   45 1   
    45   42   50 1   
    46   43   44 2   
    47   43   53 1   
    48   45   46 1   
    49   45   51 1   
    50   45   52 1   
    51   46   47 1   
    52   46   48 1   
    53   53   54 1   
    54   53   57 1   
    55   54   55 1   
    56   54   58 1   
    57   54   59 1   
    58   55   56 2   
    59   55   60 1   
    60   60   61 1   
    61   60   68 1   
    62   61   62 1   
    63   61   64 1   
    64   61   69 1   
    65   62   63 2   
    66   62   72 1   
    67   64   65 1   
    68   64   70 1   
    69   64   71 1   
    70   65   66 1   
    71   65   67 1   
    72   72   73 1   
    73   72   76 1   
    74   73   74 1   
    75   73   77 1   
    76   73   78 1   
    77   74   75 2   
    78   74   79 1   
    79   79   80 1   
    80   79   86 1   
    81   80   81 1   
    82   80   83 1   
    83   80   87 1   
    84   81   82 2   
    85   81   93 1   
    86   83   84 1   
    87   83   85 1   
    88   83   88 1   
    89   84   90 1   
    90   84   91 1   
    91   84   92 1   
    92   85   89 1   
    93   93   94 1   
    94   93  101 1   
    95   94   95 1   
    96   94   97 1   
    97   94  102 1   
    98   95   96 2   
    99   95  112 1   
   100   97   98 1   
   101   97   99 1   
   102   97  103 1   
   103   98  100 1   
   104   98  104 1   
   105   98  105 1   
   106   99  106 1   
   107   99  107 1   
   108   99  108 1   
   109  100  109 1   
   110  100  110 1   
   111  100  111 1   
   112  112  113 1   
   113  112  119 1   
   114  113  114 1   
   115  113  116 1   
   116  113  120 1   
   117  114  115 2   
   118  114  126 1   
   119  116  117 1   
   120  116  118 1   
   121  116  121 1   
   122  117  123 1   
   123  117  124 1   
   124  117  125 1   
   125  118  122 1   
   126  126  127 1   
   127  126  133 1   
   128  127  128 1   
   129  127  130 1   
   130  127  134 1   
   131  128  129 2   
   132  128  140 1   
   133  130  131 1   
   134  130  132 1   
   135  130  135 1   
   136  131  137 1   
   137  131  138 1   
   138  131  139 1   
   139  132  136 1   
   140  140  141 1   
   141  140  149 1   
   142  141  142 1   
   143  141  144 1   
   144  141  150 1   
   145  142  143 2   
   146  142  162 1   
   147  144  145 1   
   148  144  151 1   
   149  144  152 1   
   150  145  146 1   
   151  145  153 1   
   152  145  154 1   
   153  146  147 1   
   154  146  155 1   
   155  146  156 1   
   156  147  148 1   
   157  147  157 1   
   158  147  158 1   
   159  148  159 1   
   160  148  160 1   
   161  148  161 1   
   162  162  163 1   
   163  162  171 1   
   164  163  164 1   
   165  163  166 1   
   166  163  172 1   
   167  164  165 2   
   168  164  177 1   
   169  166  167 1   
   170  166  173 1   
   171  166  174 1   
   172  167  168 1   
   173  167  175 1   
   174  167  176 1   
   175  168  169 1   
   176  168  170 1   
   177  177  178 1   
   178  177  182 1   
   179  178  179 1   
   180  178  180 1   
   181  178  181 1   
   182  184  185 1   
   183  184  186 1   
   184  187  188 1   
   185  187  189 1   
   186  190  191 1   
   187  190  192 1   
@<TRIPOS>SUBSTRUCTURE
     1 MOL         1 TEMP              0 ****  ****    0 ROOT
