@<TRIPOS>MOLECULE
MOL
  178   175     1     0     0
SMALL
resp


@<TRIPOS>ATOM
      1 C1          4.4460   -1.5310    3.2850 c3        1 MOL     -0.465066
      2 C2          5.5990   -0.6810    2.9290 c         1 MOL      0.671203
      3 O1          5.5140    0.1520    2.0120 o         1 MOL     -0.610265
      4 H1          4.6570   -2.5650    3.0100 hc        1 MOL      0.135531
      5 H2          4.2670   -1.4720    4.3590 hc        1 MOL      0.135531
      6 H3          3.5600   -1.1880    2.7500 hc        1 MOL      0.135531
      7 N1          6.7880   -0.8850    3.4600 n         1 MOL     -0.500908
      8 C3          8.0620   -0.3000    2.9570 c3        1 MOL      0.050280
      9 C4          8.3750   -0.7480    1.5350 c         1 MOL      0.625488
     10 O2          8.5570   -1.9280    1.3040 o         1 MOL     -0.579309
     11 C5          9.1800   -0.5490    4.0370 c3        1 MOL     -0.171684
     12 C6         10.5480    0.0400    3.6840 c         1 MOL      0.641921
     13 O3         11.1440   -0.2560    2.6130 o         1 MOL     -0.705426
     14 O4         11.1030    0.8410    4.5090 o         1 MOL     -0.705426
     15 H4          6.8460   -1.4380    4.2940 hn        1 MOL      0.283982
     16 H5          7.8990    0.7750    2.8950 h1        1 MOL      0.039265
     17 H6          9.1570   -1.6080    4.2880 hc        1 MOL      0.029057
     18 H7          8.8070   -0.0870    4.9470 hc        1 MOL      0.029057
     19 N2          8.5900    0.1840    0.6370 n         1 MOL     -0.368255
     20 C7          9.0130    0.0150   -0.7160 c3        1 MOL      0.191319
     21 C8          7.6970   -0.4740   -1.5090 c         1 MOL      0.400151
     22 O5          7.8540   -0.8640   -2.6720 o         1 MOL     -0.567225
     23 C9          9.6420    1.3330   -1.2060 c3        1 MOL     -0.217336
     24 H8          8.2680    1.1120    0.8710 hn        1 MOL      0.220405
     25 H9          9.8040   -0.7350   -0.7170 h1        1 MOL      0.089166
     26 H10        10.4380    1.5840   -0.4980 hc        1 MOL      0.054745
     27 H11        10.0590    1.2400   -2.2080 hc        1 MOL      0.054745
     28 H12         8.8920    2.1190   -1.1000 hc        1 MOL      0.054745
     29 N3          6.5180   -0.4060   -0.9320 n         1 MOL     -0.478830
     30 C10         5.1880   -0.9360   -1.3540 c3        1 MOL      0.068193
     31 C11         4.7200   -0.5690   -2.7150 c         1 MOL      0.497137
     32 O6          3.7600   -1.1540   -3.2330 o         1 MOL     -0.536079
     33 C12         5.2620   -2.4960   -1.0800 c3        1 MOL      0.163043
     34 C13         3.9310   -3.1580   -0.9250 c         1 MOL      0.695162
     35 O7          2.9680   -2.5870   -0.3960 o         1 MOL     -0.775630
     36 O8          3.7880   -4.3090   -1.3050 o         1 MOL     -0.775630
     37 H13         6.4410    0.1130   -0.0590 hn        1 MOL      0.267098
     38 H14         4.4410   -0.5430   -0.6630 h1        1 MOL      0.085986
     39 H15         5.9270   -2.6940   -0.2400 hc        1 MOL     -0.019962
     40 H16         5.5760   -3.0460   -1.9710 hc        1 MOL     -0.019962
     41 N4          5.2580    0.4840   -3.3450 n         1 MOL     -0.246469
     42 C14         4.6710    0.9680   -4.6490 c3        1 MOL     -0.294733
     43 C15         3.2500    1.5930   -4.4900 c         1 MOL      0.523325
     44 O9          2.4400    1.6120   -5.3570 o         1 MOL     -0.512572
     45 H17         6.1210    0.8770   -2.9980 hn        1 MOL      0.259008
     46 H18         4.5930    0.1160   -5.3360 h1        1 MOL      0.147717
     47 H19         5.3500    1.6790   -5.1080 h1        1 MOL      0.147717
     48 N5          2.8220    2.1140   -3.2670 n         1 MOL     -0.319479
     49 C16         1.5550    2.7810   -3.0540 c3        1 MOL     -0.004236
     50 C17         1.5880    3.9200   -2.0880 c         1 MOL      0.418656
     51 O10         2.4320    4.0180   -1.2260 o         1 MOL     -0.479192
     52 C18         0.6530    1.6860   -2.4710 c3        1 MOL     -0.091752
     53 C19        -0.8120    2.0140   -2.7350 c         1 MOL      0.379990
     54 N6         -1.6560    2.4300   -1.8350 n         1 MOL     -0.153194
     55 O11        -1.2590    2.0170   -3.8820 o         1 MOL     -0.525480
     56 H20         3.4850    2.2150   -2.5180 hn        1 MOL      0.167777
     57 H21         1.1130    3.0140   -4.0210 h1        1 MOL      0.056019
     58 H22         0.7910    1.6400   -1.4000 hc        1 MOL      0.121544
     59 H23         0.7870    0.6670   -2.8490 hc        1 MOL      0.121544
     60 H24        -1.4560    2.4660   -0.8500 hn        1 MOL      0.109100
     61 H25        -2.4550    2.9540   -2.1760 hn        1 MOL      0.109100
     62 N7          0.6600    4.8590   -2.2190 n         1 MOL     -0.234358
     63 C20         0.3890    6.0310   -1.3920 c3        1 MOL     -0.183086
     64 C21        -1.0770    6.1360   -0.9730 c         1 MOL      0.567143
     65 O12        -1.9090    5.5870   -1.6890 o         1 MOL     -0.510859
     66 H26         0.0860    4.7870   -3.0440 hn        1 MOL      0.243392
     67 H27         0.6610    6.8400   -2.0810 h1        1 MOL      0.090564
     68 H28         1.0480    6.0190   -0.5280 h1        1 MOL      0.090564
     69 N8         -1.4170    6.7840    0.1040 n         1 MOL     -0.344167
     70 C22        -2.7330    6.9510    0.6560 c3        1 MOL     -0.423014
     71 C23        -3.1250    5.7180    1.4230 c         1 MOL      0.565023
     72 O13        -4.3080    5.6100    1.7520 o         1 MOL     -0.548330
     73 C24        -2.8690    8.2150    1.4000 c3        1 MOL      0.556438
     74 C25        -2.0850    8.4180    2.7130 c3        1 MOL     -0.400140
     75 O14        -2.4120    9.3460    0.6630 oh        1 MOL     -0.638511
     76 H29        -0.6920    7.2550    0.6320 hn        1 MOL      0.234614
     77 H30        -3.3060    7.0860   -0.2500 h1        1 MOL      0.196837
     78 H31        -3.9100    8.4560    1.6260 h1        1 MOL      0.040522
     79 H32        -1.4560    9.3430    0.5680 ho        1 MOL      0.371093
     80 H33        -1.0130    8.5470    2.5380 hc        1 MOL      0.096676
     81 H34        -2.3930    9.3200    3.2450 hc        1 MOL      0.096676
     82 H35        -2.1430    7.5160    3.3190 hc        1 MOL      0.096676
     83 N9         -2.2370    4.7230    1.6700 n         1 MOL     -0.279762
     84 C26        -2.5430    3.4120    2.3290 c3        1 MOL     -0.096885
     85 C27        -1.9130    2.2080    1.5390 c         1 MOL      0.633153
     86 O15        -0.8570    2.3580    0.9420 o         1 MOL     -0.503451
     87 C28        -1.9800    3.4780    3.8020 c3        1 MOL      0.063145
     88 C29        -2.3810    4.7120    4.7120 c3        1 MOL      0.185910
     89 C30        -2.2380    2.1900    4.5790 c3        1 MOL     -0.256313
     90 C31        -3.8210    5.0130    5.1310 c3        1 MOL     -0.272349
     91 H36        -1.2950    4.8980    1.3370 hn        1 MOL      0.237003
     92 H37        -3.6160    3.2230    2.2940 h1        1 MOL      0.095559
     93 H38        -0.9020    3.6130    3.7340 hc        1 MOL      0.010303
     94 H39        -1.9160    5.5760    4.2330 hc        1 MOL     -0.040724
     95 H40        -1.8520    4.6240    5.6580 hc        1 MOL     -0.040724
     96 H41        -1.9050    2.3740    5.5960 hc        1 MOL      0.068656
     97 H42        -3.2880    2.0070    4.8230 hc        1 MOL      0.068656
     98 H43        -1.7470    1.3300    4.1280 hc        1 MOL      0.068656
     99 H44        -4.0370    4.4010    6.0030 hc        1 MOL      0.063802
    100 H45        -3.8110    6.0620    5.4040 hc        1 MOL      0.063802
    101 H46        -4.5050    4.8210    4.3040 hc        1 MOL      0.063802
    102 N10        -2.6810    1.0990    1.4050 n         1 MOL     -0.514946
    103 C32        -2.3190   -0.1190    0.6360 c3        1 MOL      0.200067
    104 C33        -3.5380   -0.8570    0.0100 c         1 MOL      0.567695
    105 O16        -3.6790   -2.0910    0.0280 o         1 MOL     -0.534306
    106 C34        -1.2780   -1.0120    1.4460 c3        1 MOL     -0.332072
    107 C35        -0.4120   -1.9840    0.5980 c         1 MOL      0.901784
    108 O17        -0.0160   -1.6640   -0.5380 o         1 MOL     -0.787561
    109 O18         0.0280   -3.0560    1.1210 o         1 MOL     -0.787561
    110 H47        -3.6030    1.1010    1.8140 hn        1 MOL      0.267156
    111 H48        -1.8040    0.1940   -0.2680 h1        1 MOL     -0.010023
    112 H49        -1.7490   -1.5380    2.2810 hc        1 MOL      0.090070
    113 H50        -0.5900   -0.3010    1.9010 hc        1 MOL      0.090070
    114 N11        -4.5040   -0.1230   -0.4400 n         1 MOL     -0.464951
    115 C36        -5.7200   -0.6950   -1.0230 c3        1 MOL      0.527285
    116 C37        -6.4690   -1.5740   -0.0780 c         1 MOL      0.105978
    117 O19        -6.6210   -1.2770    1.0940 o         1 MOL     -0.463981
    118 C38        -6.6630    0.4340   -1.6190 c3        1 MOL     -0.211231
    119 C39        -5.9140    1.5130   -2.4240 ca        1 MOL      0.055383
    120 C40        -5.5600    2.7520   -1.8260 ca        1 MOL     -0.193314
    121 C41        -5.3860    1.1540   -3.6440 ca        1 MOL     -0.193314
    122 C42        -4.6530    3.5740   -2.5180 ca        1 MOL     -0.045108
    123 C43        -4.5460    2.0480   -4.3640 ca        1 MOL     -0.045108
    124 C44        -4.1580    3.2300   -3.7660 ca        1 MOL     -0.199390
    125 H51        -4.3860    0.8840   -0.3560 hn        1 MOL      0.204748
    126 H52        -5.3270   -1.2040   -1.9000 h1        1 MOL     -0.015584
    127 H53        -7.0770    0.8720   -0.7260 hc        1 MOL      0.061971
    128 H54        -7.4790    0.0310   -2.2270 hc        1 MOL      0.061971
    129 H55        -5.9860    3.1360   -0.9060 ha        1 MOL      0.126408
    130 H56        -5.4800    0.1530   -4.0210 ha        1 MOL      0.126408
    131 H57        -4.4200    4.5270   -2.0670 ha        1 MOL      0.118221
    132 H58        -4.0850    1.7610   -5.2980 ha        1 MOL      0.118221
    133 H59        -3.3930    3.8390   -4.2360 ha        1 MOL      0.146205
    134 N12        -6.9380   -2.7560   -0.5450 n         1 MOL     -0.062426
    135 C45        -7.6560   -3.6560    0.3770 c3        1 MOL      0.276535
    136 C46        -6.7140   -4.2390    1.4870 c         1 MOL      0.158851
    137 O20        -7.0330   -5.0360    2.3650 o         1 MOL     -0.518231
    138 C47        -8.0800   -4.8530   -0.5190 c3        1 MOL     -0.286395
    139 C48        -8.0390   -4.3480   -1.9630 c3        1 MOL     -0.185267
    140 C49        -6.9170   -3.2540   -1.9090 c3        1 MOL     -0.067140
    141 H60        -8.4580   -3.1180    0.8800 h1        1 MOL      0.034928
    142 H61        -7.2140   -5.5030   -0.6240 hc        1 MOL      0.130341
    143 H62        -9.0070   -5.3010   -0.1800 hc        1 MOL      0.130341
    144 H63        -7.6870   -5.1940   -2.5530 hc        1 MOL      0.074488
    145 H64        -8.9950   -3.9630   -2.2990 hc        1 MOL      0.074488
    146 H65        -6.0730   -3.8130   -2.3200 h1        1 MOL      0.075970
    147 H66        -7.1310   -2.4500   -2.6220 h1        1 MOL      0.075970
    148 N13        -5.3850   -4.0510    1.3730 n         1 MOL      0.043699
    149 C50        -4.3690   -4.9340    2.1010 c3        1 MOL     -0.338425
    150 C51        -4.0500   -4.4220    3.5120 c         1 MOL      0.615853
    151 O21        -3.6470   -5.1050    4.3970 o         1 MOL     -0.515614
    152 C52        -3.0790   -5.0200    1.2960 c3        1 MOL      0.134731
    153 C53        -3.1670   -5.3430   -0.2280 c3        1 MOL     -0.216531
    154 C54        -1.7990   -5.2340   -0.8920 c         1 MOL      0.722766
    155 O22        -0.8620   -5.9440   -0.5230 o         1 MOL     -0.746136
    156 O23        -1.6120   -4.4100   -1.7940 o         1 MOL     -0.746136
    157 H67        -5.0820   -3.4220    0.6380 hn        1 MOL      0.068878
    158 H68        -4.7590   -5.9450    2.1850 h1        1 MOL      0.159709
    159 H69        -2.4240   -5.7920    1.7070 hc        1 MOL      0.002107
    160 H70        -2.4830   -4.1100    1.3660 hc        1 MOL      0.002107
    161 H71        -3.8560   -4.6940   -0.7570 hc        1 MOL      0.046135
    162 H72        -3.5720   -6.3520   -0.3890 hc        1 MOL      0.046135
    163 N14        -4.3890   -3.0400    3.7410 n         1 MOL     -0.260993
    164 C55        -4.1160   -2.4410    5.0230 c3        1 MOL     -0.250026
    165 H73        -4.7750   -1.5860    5.1710 h1        1 MOL      0.086842
    166 H74        -4.2880   -3.1740    5.8110 h1        1 MOL      0.086842
    167 H75        -3.0780   -2.1090    5.0550 h1        1 MOL      0.086842
    168 H76        -4.8120   -2.4530    3.0410 hn        1 MOL      0.238248
    169 Ca1         1.0320   -4.2550   -0.9120 Ca        1 MOL      1.757394
    170 O24         1.5090   -6.1750   -2.6530 oh        1 MOL     -0.822015
    171 H77         2.4110   -6.4680   -2.7370 ho        1 MOL      0.400974
    172 H78         1.2090   -6.0630   -3.5580 ho        1 MOL      0.400974
    173 O25         1.6160   -2.9700   -3.0510 oh        1 MOL     -0.822015
    174 H79         1.1730   -2.6620   -3.8380 ho        1 MOL      0.400974
    175 H80         2.3250   -2.3470   -2.9060 ho        1 MOL      0.400974
    176 O26         2.2030   -6.4350    0.2330 oh        1 MOL     -0.822015
    177 H81         1.9190   -7.2820    0.5760 ho        1 MOL      0.400974
    178 H82         2.8780   -6.6500   -0.4080 ho        1 MOL      0.400974
@<TRIPOS>BOND
     1    1    2 1   
     2    1    4 1   
     3    1    5 1   
     4    1    6 1   
     5    2    3 2   
     6    2    7 1   
     7    7    8 1   
     8    7   15 1   
     9    8    9 1   
    10    8   11 1   
    11    8   16 1   
    12    9   10 2   
    13    9   19 1   
    14   11   12 1   
    15   11   17 1   
    16   11   18 1   
    17   12   13 1   
    18   12   14 1   
    19   19   20 1   
    20   19   24 1   
    21   20   21 1   
    22   20   23 1   
    23   20   25 1   
    24   21   22 2   
    25   21   29 1   
    26   23   26 1   
    27   23   27 1   
    28   23   28 1   
    29   29   30 1   
    30   29   37 1   
    31   30   31 1   
    32   30   33 1   
    33   30   38 1   
    34   31   32 2   
    35   31   41 1   
    36   33   34 1   
    37   33   39 1   
    38   33   40 1   
    39   34   35 1   
    40   34   36 1   
    41   41   42 1   
    42   41   45 1   
    43   42   43 1   
    44   42   46 1   
    45   42   47 1   
    46   43   44 2   
    47   43   48 1   
    48   48   49 1   
    49   48   56 1   
    50   49   50 1   
    51   49   52 1   
    52   49   57 1   
    53   50   51 2   
    54   50   62 1   
    55   52   53 1   
    56   52   58 1   
    57   52   59 1   
    58   53   54 1   
    59   53   55 2   
    60   54   60 1   
    61   54   61 1   
    62   62   63 1   
    63   62   66 1   
    64   63   64 1   
    65   63   67 1   
    66   63   68 1   
    67   64   65 2   
    68   64   69 1   
    69   69   70 1   
    70   69   76 1   
    71   70   71 1   
    72   70   73 1   
    73   70   77 1   
    74   71   72 2   
    75   71   83 1   
    76   73   74 1   
    77   73   75 1   
    78   73   78 1   
    79   74   80 1   
    80   74   81 1   
    81   74   82 1   
    82   75   79 1   
    83   83   84 1   
    84   83   91 1   
    85   84   85 1   
    86   84   87 1   
    87   84   92 1   
    88   85   86 2   
    89   85  102 1   
    90   87   88 1   
    91   87   89 1   
    92   87   93 1   
    93   88   90 1   
    94   88   94 1   
    95   88   95 1   
    96   89   96 1   
    97   89   97 1   
    98   89   98 1   
    99   90   99 1   
   100   90  100 1   
   101   90  101 1   
   102  102  103 1   
   103  102  110 1   
   104  103  104 1   
   105  103  106 1   
   106  103  111 1   
   107  104  105 2   
   108  104  114 1   
   109  106  107 1   
   110  106  112 1   
   111  106  113 1   
   112  107  108 1   
   113  107  109 1   
   114  114  115 1   
   115  114  125 1   
   116  115  116 1   
   117  115  118 1   
   118  115  126 1   
   119  116  117 2   
   120  116  134 1   
   121  118  119 1   
   122  118  127 1   
   123  118  128 1   
   124  119  120 ar  
   125  119  121 ar  
   126  120  122 ar  
   127  120  129 1   
   128  121  123 ar  
   129  121  130 1   
   130  122  124 ar  
   131  122  131 1   
   132  123  124 ar  
   133  123  132 1   
   134  124  133 1   
   135  134  135 1   
   136  134  140 1   
   137  135  136 1   
   138  135  138 1   
   139  135  141 1   
   140  136  137 2   
   141  136  148 1   
   142  138  139 1   
   143  138  142 1   
   144  138  143 1   
   145  139  140 1   
   146  139  144 1   
   147  139  145 1   
   148  140  146 1   
   149  140  147 1   
   150  148  149 1   
   151  148  157 1   
   152  149  150 1   
   153  149  152 1   
   154  149  158 1   
   155  150  151 2   
   156  150  163 1   
   157  152  153 1   
   158  152  159 1   
   159  152  160 1   
   160  153  154 1   
   161  153  161 1   
   162  153  162 1   
   163  154  155 1   
   164  154  156 1   
   165  163  164 1   
   166  163  168 1   
   167  164  165 1   
   168  164  166 1   
   169  164  167 1   
   170  170  171 1   
   171  170  172 1   
   172  173  174 1   
   173  173  175 1   
   174  176  177 1   
   175  176  178 1   
@<TRIPOS>SUBSTRUCTURE
     1 MOL         1 TEMP              0 ****  ****    0 ROOT
