@<TRIPOS>MOLECULE
MOL
  175   173     1     0     0
SMALL
resp


@<TRIPOS>ATOM
      1 C1         -6.8760    7.7450    1.6340 c3        1 MOL     -0.333088
      2 C2         -7.6670    6.9750    0.5680 c         1 MOL      0.618982
      3 O1         -7.4520    7.1670   -0.6170 o         1 MOL     -0.553602
      4 H1         -7.5690    8.1960    2.3440 hc        1 MOL      0.081339
      5 H2         -6.2120    7.0600    2.1610 hc        1 MOL      0.081339
      6 H3         -6.2860    8.5270    1.1560 hc        1 MOL      0.081339
      7 N1         -8.5360    5.9750    0.9750 n         1 MOL     -0.437322
      8 C3         -9.3620    5.0880    0.1290 c3        1 MOL      0.085016
      9 C4         -8.6510    4.0510   -0.7260 c         1 MOL      0.525109
     10 O2         -9.2020    3.5800   -1.7430 o         1 MOL     -0.524881
     11 C5        -10.3160    4.3660    1.0640 c3        1 MOL     -0.331804
     12 C6        -11.3660    3.6920    0.1820 c         1 MOL      0.747896
     13 O3        -11.5580    2.4450    0.2620 o         1 MOL     -0.732487
     14 O4        -12.2000    4.3590   -0.5350 o         1 MOL     -0.732487
     15 H4         -8.5250    5.9120    1.9890 hn        1 MOL      0.246176
     16 H5         -9.9220    5.7400   -0.5380 h1        1 MOL      0.062541
     17 H6        -10.8840    5.0120    1.7320 hc        1 MOL      0.057855
     18 H7         -9.7710    3.5670    1.5700 hc        1 MOL      0.057855
     19 N2         -7.4320    3.6620   -0.4130 n         1 MOL     -0.400224
     20 C7         -6.5860    2.7550   -1.1290 c3        1 MOL      0.189440
     21 C8         -5.5630    2.1530   -0.1770 c         1 MOL      0.510010
     22 O5         -4.9790    2.9140    0.5800 o         1 MOL     -0.543038
     23 C9         -6.0090    3.5860   -2.2290 c3        1 MOL     -0.134749
     24 H8         -7.1170    4.0240    0.4750 hn        1 MOL      0.210456
     25 H9         -7.1980    1.9440   -1.5480 h1        1 MOL      0.037953
     26 H10        -5.5200    4.4510   -1.7880 hc        1 MOL      0.048357
     27 H11        -5.2720    3.0230   -2.7990 hc        1 MOL      0.048357
     28 H12        -6.7570    3.9060   -2.9550 hc        1 MOL      0.048357
     29 N3         -5.1950    0.8910   -0.1590 n         1 MOL     -0.386789
     30 C10        -5.7700   -0.1440   -1.0270 c3        1 MOL     -0.019811
     31 C11        -5.8630   -1.5630   -0.3390 c         1 MOL      0.421206
     32 O6         -5.2030   -1.7760    0.6610 o         1 MOL     -0.472969
     33 C12        -4.8680   -0.2090   -2.3270 c3        1 MOL     -0.070253
     34 C13        -3.3830   -0.4900   -2.0140 c         1 MOL      0.577856
     35 O7         -2.9010   -1.5960   -2.3470 o         1 MOL     -0.656026
     36 O8         -2.7370    0.3240   -1.3450 o         1 MOL     -0.656026
     37 H13        -4.4420    0.6870    0.4780 hn        1 MOL      0.272465
     38 H14        -6.7850    0.1320   -1.3130 h1        1 MOL      0.065699
     39 H15        -5.0390    0.7520   -2.8130 hc        1 MOL      0.002862
     40 H16        -5.2520   -0.9390   -3.0390 hc        1 MOL      0.002862
     41 N4         -6.8180   -2.3990   -0.7640 n         1 MOL     -0.325834
     42 C14        -7.0850   -3.6540   -0.1000 c3        1 MOL      0.057392
     43 C15        -6.7980   -4.8240   -1.0170 c         1 MOL      0.467877
     44 O9         -7.7150   -5.4020   -1.5580 o         1 MOL     -0.548808
     45 H17        -7.4510   -2.1170   -1.5020 hn        1 MOL      0.306386
     46 H18        -8.1650   -3.6220    0.0710 h1        1 MOL      0.046594
     47 H19        -6.5590   -3.8020    0.8420 h1        1 MOL      0.046594
     48 N5         -5.5560   -5.1660   -1.4200 n         1 MOL     -0.402201
     49 C16        -4.2480   -4.5770   -1.0470 c3        1 MOL     -0.058900
     50 C17        -3.8780   -4.9980    0.4040 c         1 MOL      0.478444
     51 O10        -3.3340   -6.0750    0.5690 o         1 MOL     -0.532499
     52 C18        -3.2060   -4.9840   -2.0170 c3        1 MOL      0.079003
     53 C19        -1.8770   -4.2910   -1.7770 c         1 MOL      0.256290
     54 N6         -0.9190   -4.4820   -2.6840 n         1 MOL     -0.648538
     55 O11        -1.6710   -3.7130   -0.7670 o         1 MOL     -0.241497
     56 H20        -5.4910   -5.8780   -2.1340 hn        1 MOL      0.282437
     57 H21        -4.2830   -3.4860   -1.1060 h1        1 MOL      0.054449
     58 H22        -3.5450   -4.7190   -3.0110 hc        1 MOL      0.024392
     59 H23        -3.0610   -6.0650   -2.0050 hc        1 MOL      0.024392
     60 H24        -1.2400   -4.8130   -3.5840 hn        1 MOL      0.326790
     61 H25        -0.0150   -4.0780   -2.4710 hn        1 MOL      0.326790
     62 N7         -4.0210   -4.1480    1.4320 n         1 MOL     -0.199284
     63 C20        -3.5450   -4.3550    2.7650 c3        1 MOL     -0.212939
     64 C21        -2.0870   -4.5250    2.9740 c         1 MOL      0.554188
     65 O12        -1.7440   -4.9550    4.0760 o         1 MOL     -0.603756
     66 H26        -4.2140   -3.2030    1.1430 hn        1 MOL      0.238289
     67 H27        -4.0690   -5.1960    3.2140 h1        1 MOL      0.093944
     68 H28        -3.9180   -3.5020    3.3340 h1        1 MOL      0.093944
     69 N8         -1.2590   -4.1970    2.0420 n         1 MOL     -0.089474
     70 C22         0.2320   -4.3540    2.2000 c3        1 MOL     -0.322933
     71 C23         1.0050   -3.0570    1.8630 c         1 MOL      0.506163
     72 O13         0.6430   -2.2240    1.0610 o         1 MOL     -0.476301
     73 C24         0.8150   -5.5410    1.4480 c3        1 MOL      0.511923
     74 C25         0.1210   -6.8360    1.8010 c3        1 MOL     -0.552961
     75 O14         0.5880   -5.4410    0.0530 oh        1 MOL     -0.569345
     76 H29        -1.6170   -3.8950    1.1520 hn        1 MOL      0.163410
     77 H30         0.4110   -4.7180    3.2170 h1        1 MOL      0.103566
     78 H31         1.8980   -5.6280    1.5870 h1        1 MOL     -0.023739
     79 H32         1.2640   -4.9000   -0.3670 ho        1 MOL      0.330002
     80 H33         0.8180   -7.6630    1.6220 hc        1 MOL      0.136681
     81 H34        -0.1210   -6.7680    2.8580 hc        1 MOL      0.136681
     82 H35        -0.8440   -6.9360    1.3150 hc        1 MOL      0.136681
     83 N9          2.0610   -2.8080    2.6210 n         1 MOL     -0.425420
     84 C26         3.0130   -1.7030    2.4260 c3        1 MOL      0.049405
     85 C27         4.0580   -2.0660    1.3740 c         1 MOL      0.425179
     86 O15         5.1150   -2.6220    1.6010 o         1 MOL     -0.593110
     87 C28         3.6790   -1.1210    3.6720 c3        1 MOL      0.305075
     88 C29         4.3960    0.2090    3.3620 c3        1 MOL      0.071823
     89 C30         2.7510   -0.9370    4.9340 c3        1 MOL     -0.278475
     90 C31         5.6220    0.5760    4.2260 c3        1 MOL     -0.273671
     91 H36         2.1570   -3.4350    3.4060 hn        1 MOL      0.277139
     92 H37         2.4780   -0.8740    1.9600 h1        1 MOL      0.007000
     93 H38         4.3890   -1.8810    4.0150 hc        1 MOL     -0.046909
     94 H39         3.6980    1.0370    3.4630 hc        1 MOL     -0.049568
     95 H40         4.7410    0.2530    2.3330 hc        1 MOL     -0.049568
     96 H41         2.4650   -1.9180    5.3230 hc        1 MOL      0.059766
     97 H42         3.3850   -0.4720    5.6980 hc        1 MOL      0.059766
     98 H43         1.8770   -0.2960    4.8340 hc        1 MOL      0.059766
     99 H44         5.1970    0.8840    5.1830 hc        1 MOL      0.059368
    100 H45         6.3940   -0.1780    4.3770 hc        1 MOL      0.059368
    101 H46         6.1490    1.4400    3.8200 hc        1 MOL      0.059368
    102 N10         3.8170   -1.6310    0.1520 n         1 MOL     -0.109523
    103 C32         4.6410   -2.1050   -0.9780 c3        1 MOL      0.064171
    104 C33         5.8680   -1.2920   -1.2520 c         1 MOL      0.568918
    105 O16         6.5320   -1.5180   -2.2480 o         1 MOL     -0.580017
    106 C34         3.7670   -2.4750   -2.2060 c3        1 MOL     -0.431862
    107 C35         2.5760   -3.3270   -1.7730 c         1 MOL      0.801902
    108 O17         2.7330   -4.5100   -1.5100 o         1 MOL     -0.658807
    109 O18         1.4050   -2.8330   -1.8590 o         1 MOL     -0.658807
    110 H47         2.8930   -1.3190   -0.1200 hn        1 MOL      0.075905
    111 H48         5.0110   -3.0830   -0.6840 h1        1 MOL      0.099761
    112 H49         4.2570   -3.0970   -2.9480 hc        1 MOL      0.109232
    113 H50         3.3900   -1.5520   -2.6540 hc        1 MOL      0.109232
    114 N11         6.3310   -0.3540   -0.4790 n         1 MOL     -0.585115
    115 C36         7.4580    0.5350   -0.7840 c3        1 MOL      0.490230
    116 C37         6.9920    1.9340   -0.3680 c         1 MOL      0.242341
    117 O19         6.8240    2.1150    0.8460 o         1 MOL     -0.510153
    118 C38         8.7520    0.0790   -0.1290 c3        1 MOL     -0.181225
    119 C39        10.0930    0.4460   -0.7800 ca        1 MOL      0.087942
    120 C40        10.9470    1.4430   -0.2810 ca        1 MOL     -0.139133
    121 C41        10.4260   -0.1450   -1.9670 ca        1 MOL     -0.139133
    122 C42        12.1690    1.7500   -0.8000 ca        1 MOL     -0.130038
    123 C43        11.7020    0.1430   -2.4950 ca        1 MOL     -0.130038
    124 C44        12.6440    1.0080   -1.8930 ca        1 MOL     -0.111574
    125 H51         5.8640   -0.1510    0.3890 hn        1 MOL      0.304527
    126 H52         7.6870    0.5220   -1.8550 h1        1 MOL     -0.044179
    127 H53         8.7140   -1.0100   -0.2220 hc        1 MOL      0.076265
    128 H54         8.7490    0.2310    0.9430 hc        1 MOL      0.076265
    129 H55        10.5580    2.0250    0.5540 ha        1 MOL      0.115396
    130 H56         9.7630   -0.9140   -2.3320 ha        1 MOL      0.115396
    131 H57        12.7480    2.5960   -0.4360 ha        1 MOL      0.103326
    132 H58        11.9540   -0.4640   -3.3570 ha        1 MOL      0.103326
    133 H59        13.5200    1.2660   -2.4620 ha        1 MOL      0.103832
    134 N12         6.9160    2.9450   -1.1790 n         1 MOL     -0.167768
    135 C45         6.8170    4.4010   -0.8990 c3        1 MOL     -0.032722
    136 C46         5.5120    4.7410   -0.1960 c         1 MOL      0.572866
    137 O20         5.3020    5.8920    0.1010 o         1 MOL     -0.567208
    138 C47         7.1040    5.0700   -2.2060 c3        1 MOL     -0.025862
    139 C48         6.5550    4.1200   -3.2550 c3        1 MOL     -0.094046
    140 C49         6.8710    2.7180   -2.6160 c3        1 MOL     -0.106854
    141 H60         7.5650    4.7900   -0.2090 h1        1 MOL      0.064677
    142 H61         6.6460    6.0580   -2.1230 hc        1 MOL      0.051901
    143 H62         8.1520    5.2870   -2.3990 hc        1 MOL      0.051901
    144 H63         5.4770    4.2670   -3.2100 hc        1 MOL      0.049668
    145 H64         7.0400    4.1570   -4.2280 hc        1 MOL      0.049668
    146 H65         6.0760    2.0200   -2.8950 h1        1 MOL      0.093670
    147 H66         7.8270    2.2980   -2.9270 h1        1 MOL      0.093670
    148 N13         4.5490    3.8550    0.0170 n         1 MOL     -0.232951
    149 C50         3.2080    4.2830    0.5100 c3        1 MOL     -0.344879
    150 C51         3.2710    4.8480    1.9480 c         1 MOL      0.469890
    151 O21         2.2750    5.4160    2.4530 o         1 MOL     -0.505991
    152 C52         2.0420    3.3270    0.1420 c3        1 MOL     -0.280241
    153 C53         2.0730    1.9630    0.8780 c3        1 MOL     -0.115892
    154 C54         1.2060    0.9790    0.1420 c         1 MOL      0.556863
    155 O22         1.6580    0.0390   -0.6070 o         1 MOL     -0.692145
    156 O23        -0.0430    1.0870    0.2870 o         1 MOL     -0.692145
    157 H67         4.6440    2.8880   -0.2680 hn        1 MOL      0.267058
    158 H68         2.9750    5.1480   -0.1110 h1        1 MOL      0.181168
    159 H69         2.0530    3.2110   -0.9390 hc        1 MOL      0.175582
    160 H70         1.1260    3.8170    0.4560 hc        1 MOL      0.175582
    161 H71         1.7590    2.0040    1.9200 hc        1 MOL      0.109197
    162 H72         3.0480    1.4680    0.8980 hc        1 MOL      0.109197
    163 N14         4.3830    4.6610    2.7090 n         1 MOL     -0.129674
    164 C55         4.5190    5.2880    3.9600 c3        1 MOL      0.037182
    165 H73         3.5910    5.8000    4.2120 h1        1 MOL      0.017762
    166 H74         4.7370    4.5380    4.7200 h1        1 MOL      0.017762
    167 H75         5.3340    6.0110    3.9180 h1        1 MOL      0.017762
    168 H76         5.1550    4.1380    2.3180 hn        1 MOL      0.171975
    169 Ca1        -0.4900   -1.2950   -1.1300 Ca        1 MOL      1.728071
    170 O24        -2.3950   -1.4720    1.0050 oh        1 MOL     -0.997081
    171 H77        -2.0080   -0.7420    1.4900 ho        1 MOL      0.458685
    172 H78        -3.3270   -1.2600    0.9480 ho        1 MOL      0.458685
    173 O25         0.1290   -0.8440   -3.6490 oh        1 MOL     -0.997081
    174 H79         0.7200   -1.1890   -4.3160 ho        1 MOL      0.458685
    175 H80        -0.3010   -0.1010   -4.0660 ho        1 MOL      0.458685
@<TRIPOS>BOND
     1    1    2 1   
     2    1    4 1   
     3    1    5 1   
     4    1    6 1   
     5    2    3 2   
     6    2    7 1   
     7    7    8 1   
     8    7   15 1   
     9    8    9 1   
    10    8   11 1   
    11    8   16 1   
    12    9   10 2   
    13    9   19 1   
    14   11   12 1   
    15   11   17 1   
    16   11   18 1   
    17   12   13 1   
    18   12   14 1   
    19   19   20 1   
    20   19   24 1   
    21   20   21 1   
    22   20   23 1   
    23   20   25 1   
    24   21   22 2   
    25   21   29 1   
    26   23   26 1   
    27   23   27 1   
    28   23   28 1   
    29   29   30 1   
    30   29   37 1   
    31   30   31 1   
    32   30   33 1   
    33   30   38 1   
    34   31   32 2   
    35   31   41 1   
    36   33   34 1   
    37   33   39 1   
    38   33   40 1   
    39   34   35 1   
    40   34   36 1   
    41   41   42 1   
    42   41   45 1   
    43   42   43 1   
    44   42   46 1   
    45   42   47 1   
    46   43   44 2   
    47   43   48 1   
    48   48   49 1   
    49   48   56 1   
    50   49   50 1   
    51   49   52 1   
    52   49   57 1   
    53   50   51 2   
    54   50   62 1   
    55   52   53 1   
    56   52   58 1   
    57   52   59 1   
    58   53   54 1   
    59   53   55 2   
    60   54   60 1   
    61   54   61 1   
    62   62   63 1   
    63   62   66 1   
    64   63   64 1   
    65   63   67 1   
    66   63   68 1   
    67   64   65 2   
    68   64   69 1   
    69   69   70 1   
    70   69   76 1   
    71   70   71 1   
    72   70   73 1   
    73   70   77 1   
    74   71   72 2   
    75   71   83 1   
    76   73   74 1   
    77   73   75 1   
    78   73   78 1   
    79   74   80 1   
    80   74   81 1   
    81   74   82 1   
    82   75   79 1   
    83   83   84 1   
    84   83   91 1   
    85   84   85 1   
    86   84   87 1   
    87   84   92 1   
    88   85   86 2   
    89   85  102 1   
    90   87   88 1   
    91   87   89 1   
    92   87   93 1   
    93   88   90 1   
    94   88   94 1   
    95   88   95 1   
    96   89   96 1   
    97   89   97 1   
    98   89   98 1   
    99   90   99 1   
   100   90  100 1   
   101   90  101 1   
   102  102  103 1   
   103  102  110 1   
   104  103  104 1   
   105  103  106 1   
   106  103  111 1   
   107  104  105 2   
   108  104  114 1   
   109  106  107 1   
   110  106  112 1   
   111  106  113 1   
   112  107  108 1   
   113  107  109 1   
   114  114  115 1   
   115  114  125 1   
   116  115  116 1   
   117  115  118 1   
   118  115  126 1   
   119  116  117 2   
   120  116  134 1   
   121  118  119 1   
   122  118  127 1   
   123  118  128 1   
   124  119  120 ar  
   125  119  121 ar  
   126  120  122 ar  
   127  120  129 1   
   128  121  123 ar  
   129  121  130 1   
   130  122  124 ar  
   131  122  131 1   
   132  123  124 ar  
   133  123  132 1   
   134  124  133 1   
   135  134  135 1   
   136  134  140 1   
   137  135  136 1   
   138  135  138 1   
   139  135  141 1   
   140  136  137 2   
   141  136  148 1   
   142  138  139 1   
   143  138  142 1   
   144  138  143 1   
   145  139  140 1   
   146  139  144 1   
   147  139  145 1   
   148  140  146 1   
   149  140  147 1   
   150  148  149 1   
   151  148  157 1   
   152  149  150 1   
   153  149  152 1   
   154  149  158 1   
   155  150  151 2   
   156  150  163 1   
   157  152  153 1   
   158  152  159 1   
   159  152  160 1   
   160  153  154 1   
   161  153  161 1   
   162  153  162 1   
   163  154  155 1   
   164  154  156 1   
   165  163  164 1   
   166  163  168 1   
   167  164  165 1   
   168  164  166 1   
   169  164  167 1   
   170  170  171 1   
   171  170  172 1   
   172  173  174 1   
   173  173  175 1   
@<TRIPOS>SUBSTRUCTURE
     1 MOL         1 TEMP              0 ****  ****    0 ROOT
