@<TRIPOS>MOLECULE
MOL
  182   178     1     0     0
SMALL
resp


@<TRIPOS>ATOM
      1 C1          1.3340   -5.4060    5.5360 c3        1 MOL     -0.328572
      2 C2          1.4050   -4.7840    4.1810 c         1 MOL      0.757555
      3 O1          0.5280   -4.9860    3.3340 o         1 MOL     -0.586766
      4 H1          1.6520   -4.6820    6.2850 hc        1 MOL      0.087404
      5 H2          0.3080   -5.7130    5.7420 hc        1 MOL      0.087404
      6 H3          1.9890   -6.2770    5.5710 hc        1 MOL      0.087404
      7 N1          2.5530   -4.0610    3.9280 n         1 MOL     -0.634229
      8 C3          2.7360   -3.3510    2.6680 c3        1 MOL     -0.038430
      9 C4          3.0120   -4.4000    1.5500 c         1 MOL      0.774225
     10 O2          3.8130   -5.2460    1.7160 o         1 MOL     -0.564045
     11 C5          3.8990   -2.3410    2.8480 c3        1 MOL      0.058308
     12 C6          3.8420   -1.3300    1.7120 c         1 MOL      0.296087
     13 O3          4.3520   -0.2210    1.8210 o         1 MOL     -0.510586
     14 O4          3.4630   -1.6480    0.5540 o         1 MOL     -0.510586
     15 H4          3.1200   -3.7630    4.7120 hn        1 MOL      0.337815
     16 H5          1.9110   -2.7410    2.3060 h1        1 MOL     -0.016909
     17 H6          4.8180   -2.9270    2.7910 hc        1 MOL      0.023780
     18 H7          3.7130   -1.7530    3.7450 hc        1 MOL      0.023780
     19 N2          2.2990   -4.3630    0.3620 n         1 MOL     -0.441644
     20 C7          2.5090   -5.2990   -0.7170 c3        1 MOL      0.085165
     21 C8          3.6900   -5.0050   -1.6670 c         1 MOL      0.536646
     22 O5          4.1760   -5.9640   -2.3510 o         1 MOL     -0.561925
     23 C9          1.1940   -5.7340   -1.4740 c3        1 MOL     -0.083279
     24 C10         0.5670   -4.5920   -2.2650 c3        1 MOL      0.052501
     25 C11        -0.7740   -4.9360   -2.9800 c3        1 MOL     -0.070892
     26 C12        -1.9070   -5.2670   -1.9380 c3        1 MOL      0.156967
     27 N3         -3.0000   -6.0440   -2.5840 n4        1 MOL     -0.376869
     28 H8          1.6200   -3.6270    0.2450 hn        1 MOL      0.101798
     29 H9          2.8400   -6.2130   -0.2180 h1        1 MOL      0.074342
     30 H10         0.5350   -6.2090   -0.7450 hc        1 MOL      0.026968
     31 H11         1.5670   -6.5040   -2.1580 hc        1 MOL      0.026968
     32 H12         1.3510   -4.2130   -2.9260 hc        1 MOL      0.006562
     33 H13         0.3210   -3.8230   -1.5380 hc        1 MOL      0.006562
     34 H14        -0.6710   -5.6810   -3.7660 hc        1 MOL      0.024779
     35 H15        -1.0580   -4.0160   -3.4840 hc        1 MOL      0.024779
     36 H16        -2.2670   -4.3420   -1.4990 hx        1 MOL      0.040404
     37 H17        -1.4680   -5.8130   -1.1000 hx        1 MOL      0.040404
     38 H18        -3.5460   -6.5180   -1.8820 hn        1 MOL      0.284017
     39 H19        -3.6990   -5.4490   -3.0070 hn        1 MOL      0.284017
     40 H20        -2.6300   -6.8220   -3.1100 hn        1 MOL      0.284017
     41 N4          4.3470   -3.8470   -1.5060 n         1 MOL     -0.454595
     42 C13         5.5450   -3.4910   -2.3210 c3        1 MOL      0.045753
     43 C14         6.6280   -2.7730   -1.4530 c         1 MOL      0.534493
     44 O6          7.8010   -3.0480   -1.7390 o         1 MOL     -0.609970
     45 C15         5.1960   -2.6600   -3.5530 c3        1 MOL     -0.225627
     46 C16         4.7190   -1.2180   -3.2030 c         1 MOL      0.700260
     47 O7          4.5090   -0.7570   -2.0700 o         1 MOL     -0.700012
     48 O8          4.6180   -0.4330   -4.1920 o         1 MOL     -0.700012
     49 H21         3.9290   -3.1460   -0.9040 hn        1 MOL      0.244832
     50 H22         5.8900   -4.4700   -2.6530 h1        1 MOL      0.110727
     51 H23         4.5330   -3.0780   -4.3080 hc        1 MOL      0.079565
     52 H24         6.1760   -2.5880   -4.0180 hc        1 MOL      0.079565
     53 N5          6.3010   -2.1060   -0.4280 n         1 MOL     -0.054430
     54 C17         7.2400   -1.6410    0.6860 c3        1 MOL     -0.318553
     55 C18         7.4680   -0.1290    0.8570 c         1 MOL      0.565752
     56 O9          7.8320    0.4260    1.8710 o         1 MOL     -0.536612
     57 H25         5.3230   -1.8550   -0.3390 hn        1 MOL      0.034459
     58 H26         8.2620   -1.9960    0.5590 h1        1 MOL      0.159992
     59 H27         6.9090   -2.0880    1.6140 h1        1 MOL      0.159992
     60 N6          7.2430    0.5960   -0.2490 n         1 MOL     -0.273860
     61 C19         7.3730    2.0000   -0.3220 c3        1 MOL      0.116845
     62 C20         6.0650    2.7790   -0.1790 c         1 MOL      0.572347
     63 O10         4.9660    2.1940   -0.3160 o         1 MOL     -0.561645
     64 C21         8.0790    2.3920   -1.6550 c3        1 MOL     -0.350827
     65 C22         7.2920    1.8690   -2.7940 c         1 MOL      0.690894
     66 N7          7.8070    0.7990   -3.4270 n         1 MOL     -0.774584
     67 O11         6.2460    2.3940   -3.1810 o         1 MOL     -0.561626
     68 H28         6.8750    0.0580   -1.0220 hn        1 MOL      0.116499
     69 H29         8.0790    2.3040    0.4540 h1        1 MOL      0.059126
     70 H30         9.0490    1.8850   -1.7120 hc        1 MOL      0.097527
     71 H31         8.1620    3.4650   -1.8120 hc        1 MOL      0.097527
     72 H32         8.6150    0.3470   -3.0150 hn        1 MOL      0.383474
     73 H33         7.2720    0.4040   -4.1900 hn        1 MOL      0.383474
     74 N8          6.1720    4.0970    0.1010 n         1 MOL     -0.461464
     75 C23         5.0190    5.0250   -0.0860 c3        1 MOL     -0.102479
     76 C24         3.8410    4.7700    0.8810 c         1 MOL      0.584450
     77 O12         4.0800    4.4980    2.0830 o         1 MOL     -0.487101
     78 H34         7.0980    4.5080    0.1580 hn        1 MOL      0.329980
     79 H35         4.6220    4.9850   -1.0990 h1        1 MOL      0.095403
     80 H36         5.5260    5.9770    0.0610 h1        1 MOL      0.095403
     81 N9          2.6270    4.9320    0.3830 n         1 MOL     -0.587997
     82 C25         1.3790    4.5640    1.0970 c3        1 MOL      0.290705
     83 C26         1.4240    3.0430    1.4640 c         1 MOL      0.342927
     84 O13         2.3000    2.3330    1.0300 o         1 MOL     -0.498245
     85 C27         0.1590    4.7560    0.1180 c3        1 MOL     -0.290707
     86 C28        -0.0590    6.2600   -0.2300 ca        1 MOL      0.064239
     87 C29        -0.5050    7.1010    0.7980 ca        1 MOL     -0.149453
     88 C30         0.2430    6.7840   -1.4980 ca        1 MOL     -0.149453
     89 C31        -0.6760    8.5210    0.6110 ca        1 MOL     -0.290217
     90 C32         0.1520    8.2570   -1.6620 ca        1 MOL     -0.290217
     91 C33        -0.4040    9.0500   -0.6620 ca        1 MOL      0.370872
     92 O14        -0.5440   10.3450   -0.9400 oh        1 MOL     -0.456385
     93 H37         2.5620    5.0130   -0.6180 hn        1 MOL      0.338343
     94 H38         1.1980    5.1320    2.0030 h1        1 MOL      0.042779
     95 H39        -0.7170    4.3100    0.5800 hc        1 MOL      0.104594
     96 H40         0.4050    4.1710   -0.7640 hc        1 MOL      0.104594
     97 H41        -0.7780    6.6320    1.7290 ha        1 MOL      0.134388
     98 H42         0.5750    6.1510   -2.3050 ha        1 MOL      0.134388
     99 H43        -1.1870    9.1780    1.2980 ha        1 MOL      0.167448
    100 H44         0.3340    8.6530   -2.6560 ha        1 MOL      0.167448
    101 H45        -0.8330   10.7790   -0.1320 ho        1 MOL      0.357344
    102 N10         0.5590    2.6080    2.3890 n         1 MOL     -0.467733
    103 C34         0.4180    1.2310    2.8030 c3        1 MOL      0.076369
    104 C35        -0.0350    0.2480    1.7400 c         1 MOL      0.311942
    105 O15         0.8140   -0.1130    0.8600 o         1 MOL     -0.257595
    106 C36         1.5210    0.7360    3.7530 c3        1 MOL      0.455547
    107 C37         0.9860   -0.4880    4.6360 c3        1 MOL     -0.345947
    108 C38         2.2350    1.7650    4.6780 c3        1 MOL     -0.255175
    109 C39        -0.2420   -0.1490    5.4500 c3        1 MOL     -0.127473
    110 H46         0.0350    3.3330    2.8570 hn        1 MOL      0.299527
    111 H47        -0.4360    1.2120    3.4710 h1        1 MOL      0.020264
    112 H48         2.2860    0.3060    3.1170 hc        1 MOL     -0.107316
    113 H49         1.6880   -0.8430    5.3920 hc        1 MOL      0.127423
    114 H50         0.7530   -1.3720    4.0540 hc        1 MOL      0.127423
    115 H51         2.7360    2.5230    4.0810 hc        1 MOL      0.067386
    116 H52         1.5330    2.3080    5.3110 hc        1 MOL      0.067386
    117 H53         2.9740    1.2620    5.2880 hc        1 MOL      0.067386
    118 H54        -0.4080    0.9080    5.6770 hc        1 MOL      0.036126
    119 H55        -1.1200   -0.4020    4.8580 hc        1 MOL      0.036126
    120 H56        -0.3340   -0.8000    6.3170 hc        1 MOL      0.036126
    121 N11        -1.2870   -0.2890    1.7360 n         1 MOL     -0.438306
    122 C40        -1.8560   -1.1220    0.6550 c3        1 MOL      0.024531
    123 C41        -3.4000   -1.1730    0.5120 c         1 MOL      0.507677
    124 O16        -3.9630   -2.0840   -0.1690 o         1 MOL     -0.542653
    125 C42        -1.2980   -2.5470    0.7030 c3        1 MOL      0.100109
    126 O17         0.0550   -2.5710    0.4800 oh        1 MOL     -0.221755
    127 H57        -1.7590    0.0270    2.5670 hn        1 MOL      0.302772
    128 H58        -1.6360   -0.6290   -0.3020 h1        1 MOL      0.081536
    129 H59        -1.7610   -3.1920   -0.0360 h1        1 MOL      0.030160
    130 H60        -1.4130   -2.9710    1.6920 h1        1 MOL      0.030160
    131 H61         0.4390   -1.6890    0.5320 ho        1 MOL      0.145603
    132 N12        -4.1710   -0.2030    1.0020 n         1 MOL     -0.462591
    133 C43        -5.5470   -0.0350    0.5770 c3        1 MOL      0.129263
    134 C44        -5.7000    0.8380   -0.7010 c         1 MOL      0.595596
    135 O18        -4.8960    1.7940   -0.8990 o         1 MOL     -0.594953
    136 C45        -6.4250    0.5530    1.7020 c3        1 MOL     -0.236704
    137 H62        -3.7020    0.5230    1.5250 hn        1 MOL      0.270595
    138 H63        -5.9100   -1.0290    0.3190 h1        1 MOL      0.109966
    139 H64        -7.4320    0.8450    1.4120 hc        1 MOL      0.083962
    140 H65        -6.4860   -0.0900    2.5780 hc        1 MOL      0.083962
    141 H66        -5.9070    1.4480    2.0460 hc        1 MOL      0.083962
    142 N13        -6.7280    0.7300   -1.5340 n         1 MOL     -0.604796
    143 C46        -7.8250   -0.1590   -1.5130 c3        1 MOL      0.310958
    144 C47        -9.0960    0.4490   -2.2130 c         1 MOL      0.500577
    145 O19        -9.0260    1.1420   -3.2030 o         1 MOL     -0.536646
    146 C48        -7.3360   -1.4610   -2.1770 c3        1 MOL     -0.263055
    147 H67        -6.7570    1.5250   -2.1600 hn        1 MOL      0.331982
    148 H68        -8.0520   -0.3800   -0.4670 h1        1 MOL     -0.012240
    149 H69        -7.1640   -1.4680   -3.2580 hc        1 MOL      0.074058
    150 H70        -6.5070   -1.8580   -1.5800 hc        1 MOL      0.074058
    151 H71        -8.1210   -2.1900   -2.0030 hc        1 MOL      0.074058
    152 N14       -10.3150    0.4040   -1.6550 n         1 MOL     -0.477732
    153 C49       -10.7240   -0.1890   -0.3830 c3        1 MOL      0.010327
    154 C50       -10.1730    0.5280    0.8030 c         1 MOL      0.277531
    155 O20        -9.8400   -0.1050    1.8390 o         1 MOL     -0.487795
    156 C51       -12.2760   -0.3100   -0.2830 c3        1 MOL      0.023972
    157 C52       -12.8550   -1.4940   -0.9930 c3        1 MOL     -0.246612
    158 C53       -14.3390   -1.5560   -0.8130 c         1 MOL      0.745358
    159 O21       -14.8460   -2.0550    0.1810 o         1 MOL     -0.664705
    160 O22       -15.0980   -1.1110   -1.7220 o         1 MOL     -0.664705
    161 H72       -11.0340    0.9240   -2.1330 hn        1 MOL      0.339406
    162 H73       -10.2950   -1.1830   -0.2650 h1        1 MOL      0.078915
    163 H74       -12.8170    0.6220   -0.4480 hc        1 MOL      0.050181
    164 H75       -12.4850   -0.4940    0.7630 hc        1 MOL      0.050181
    165 H76       -12.3580   -2.4140   -0.6890 hc        1 MOL      0.039008
    166 H77       -12.7150   -1.2700   -2.0430 hc        1 MOL      0.039008
    167 N15       -10.2970    1.8530    0.7850 n         1 MOL     -0.214076
    168 C54        -9.7910    2.7420    1.9100 c3        1 MOL     -0.154906
    169 H78        -8.8520    3.2070    1.6100 h1        1 MOL      0.095029
    170 H79       -10.5280    3.5170    2.1220 h1        1 MOL      0.095029
    171 H80        -9.6280    2.1410    2.8040 h1        1 MOL      0.095029
    172 H81       -10.6820    2.2200   -0.0610 hn        1 MOL      0.229682
    173 Ca1         2.8860    0.5620   -0.6310 Ca        1 MOL      1.712778
    174 O23         3.6340    1.7410   -3.1100 oh        1 MOL     -0.887742
    175 H82         4.3630    2.3670   -3.1460 ho        1 MOL      0.425736
    176 H83         3.9960    0.9270   -3.4670 ho        1 MOL      0.425736
    177 O24         1.0940   -1.1230   -2.0950 oh        1 MOL     -0.887742
    178 H84         1.5440   -1.6160   -2.7710 ho        1 MOL      0.425736
    179 H85         0.2250   -0.9350   -2.4600 ho        1 MOL      0.425736
    180 O25         0.7880    1.9450   -1.7300 oh        1 MOL     -0.887742
    181 H86        -0.1020    2.0470   -1.3780 ho        1 MOL      0.425736
    182 H87         0.6640    1.9050   -2.6780 ho        1 MOL      0.425736
@<TRIPOS>BOND
     1    1    2 1   
     2    1    4 1   
     3    1    5 1   
     4    1    6 1   
     5    2    3 2   
     6    2    7 1   
     7    7    8 1   
     8    7   15 1   
     9    8    9 1   
    10    8   11 1   
    11    8   16 1   
    12    9   10 2   
    13    9   19 1   
    14   11   12 1   
    15   11   17 1   
    16   11   18 1   
    17   12   13 1   
    18   12   14 1   
    19   19   20 1   
    20   19   28 1   
    21   20   21 1   
    22   20   23 1   
    23   20   29 1   
    24   21   22 2   
    25   21   41 1   
    26   23   24 1   
    27   23   30 1   
    28   23   31 1   
    29   24   25 1   
    30   24   32 1   
    31   24   33 1   
    32   25   26 1   
    33   25   34 1   
    34   25   35 1   
    35   26   27 1   
    36   26   36 1   
    37   26   37 1   
    38   27   38 1   
    39   27   39 1   
    40   27   40 1   
    41   41   42 1   
    42   41   49 1   
    43   42   43 1   
    44   42   45 1   
    45   42   50 1   
    46   43   44 2   
    47   43   53 1   
    48   45   46 1   
    49   45   51 1   
    50   45   52 1   
    51   46   47 1   
    52   46   48 1   
    53   53   54 1   
    54   53   57 1   
    55   54   55 1   
    56   54   58 1   
    57   54   59 1   
    58   55   56 2   
    59   55   60 1   
    60   60   61 1   
    61   60   68 1   
    62   61   62 1   
    63   61   64 1   
    64   61   69 1   
    65   62   63 2   
    66   62   74 1   
    67   64   65 1   
    68   64   70 1   
    69   64   71 1   
    70   65   66 1   
    71   65   67 2   
    72   66   72 1   
    73   66   73 1   
    74   74   75 1   
    75   74   78 1   
    76   75   76 1   
    77   75   79 1   
    78   75   80 1   
    79   76   77 2   
    80   76   81 1   
    81   81   82 1   
    82   81   93 1   
    83   82   83 1   
    84   82   85 1   
    85   82   94 1   
    86   83   84 2   
    87   83  102 1   
    88   85   86 1   
    89   85   95 1   
    90   85   96 1   
    91   86   87 ar  
    92   86   88 ar  
    93   87   89 ar  
    94   87   97 1   
    95   88   90 ar  
    96   88   98 1   
    97   89   91 ar  
    98   89   99 1   
    99   90   91 ar  
   100   90  100 1   
   101   91   92 1   
   102   92  101 1   
   103  102  103 1   
   104  102  110 1   
   105  103  104 1   
   106  103  106 1   
   107  103  111 1   
   108  104  105 2   
   109  104  121 1   
   110  106  107 1   
   111  106  108 1   
   112  106  112 1   
   113  107  109 1   
   114  107  113 1   
   115  107  114 1   
   116  108  115 1   
   117  108  116 1   
   118  108  117 1   
   119  109  118 1   
   120  109  119 1   
   121  109  120 1   
   122  121  122 1   
   123  121  127 1   
   124  122  123 1   
   125  122  125 1   
   126  122  128 1   
   127  123  124 2   
   128  123  132 1   
   129  125  126 1   
   130  125  129 1   
   131  125  130 1   
   132  126  131 1   
   133  132  133 1   
   134  132  137 1   
   135  133  134 1   
   136  133  136 1   
   137  133  138 1   
   138  134  135 2   
   139  134  142 1   
   140  136  139 1   
   141  136  140 1   
   142  136  141 1   
   143  142  143 1   
   144  142  147 1   
   145  143  144 1   
   146  143  146 1   
   147  143  148 1   
   148  144  145 2   
   149  144  152 1   
   150  146  149 1   
   151  146  150 1   
   152  146  151 1   
   153  152  153 1   
   154  152  161 1   
   155  153  154 1   
   156  153  156 1   
   157  153  162 1   
   158  154  155 2   
   159  154  167 1   
   160  156  157 1   
   161  156  163 1   
   162  156  164 1   
   163  157  158 1   
   164  157  165 1   
   165  157  166 1   
   166  158  159 1   
   167  158  160 1   
   168  167  168 1   
   169  167  172 1   
   170  168  169 1   
   171  168  170 1   
   172  168  171 1   
   173  174  175 1   
   174  174  176 1   
   175  177  178 1   
   176  177  179 1   
   177  180  181 1   
   178  180  182 1   
@<TRIPOS>SUBSTRUCTURE
     1 MOL         1 TEMP              0 ****  ****    0 ROOT
