@<TRIPOS>MOLECULE
MOL
  198   191     1     0     0
SMALL
resp


@<TRIPOS>ATOM
      1 C1          7.8340    9.0760   -1.7730 c3        1 MOL     -0.357727
      2 C2          7.2090    7.7150   -1.2950 c         1 MOL      0.721060
      3 O1          5.9960    7.6330   -1.0460 o         1 MOL     -0.614472
      4 H1          7.3860    9.8980   -1.2150 hc        1 MOL      0.092571
      5 H2          8.9110    9.0640   -1.5990 hc        1 MOL      0.092571
      6 H3          7.6400    9.2130   -2.8380 hc        1 MOL      0.092571
      7 N1          8.0000    6.6030   -1.3400 n         1 MOL     -0.680791
      8 C3          7.5180    5.2730   -1.2280 c3        1 MOL      0.359135
      9 C4          7.0730    4.9780    0.2650 c         1 MOL      0.325909
     10 O2          7.7230    5.3960    1.2650 o         1 MOL     -0.500130
     11 C5          8.5760    4.3000   -1.8200 c3        1 MOL     -0.262539
     12 C6          8.1450    2.8940   -2.2020 c         1 MOL      0.701566
     13 O3          8.9640    2.1210   -2.7220 o         1 MOL     -0.695025
     14 O4          6.9970    2.5130   -2.0180 o         1 MOL     -0.695025
     15 H4          8.9320    6.7740   -1.6940 hn        1 MOL      0.329581
     16 H5          6.7040    5.1440   -1.9300 h1        1 MOL      0.020313
     17 H6          9.4950    4.2430   -1.2480 hc        1 MOL      0.057980
     18 H7          8.8880    4.7580   -2.7600 hc        1 MOL      0.057980
     19 N2          5.9390    4.2800    0.4280 n         1 MOL     -0.150997
     20 C7          5.1640    4.1260    1.6910 c3        1 MOL      0.040978
     21 C8          5.6600    3.1270    2.7170 c         1 MOL      0.427081
     22 O5          5.7320    3.5220    3.8790 o         1 MOL     -0.580080
     23 C9          3.7300    3.8200    1.2820 c3        1 MOL     -0.108446
     24 C10         2.9160    5.0090    0.6910 c3        1 MOL      0.284492
     25 C11         2.5730    6.0730    1.8050 c3        1 MOL     -0.396677
     26 C12         1.9580    7.4320    1.1900 c3        1 MOL      0.106092
     27 N3          1.5420    8.4440    2.1860 n4        1 MOL     -0.250847
     28 H8          5.5500    3.8940   -0.4230 hn        1 MOL      0.110349
     29 H9          5.2970    5.0920    2.1880 h1        1 MOL      0.081565
     30 H10         3.1620    3.4400    2.1250 hc        1 MOL      0.028084
     31 H11         3.6340    3.1080    0.4680 hc        1 MOL      0.028084
     32 H12         1.9650    4.6320    0.3030 hc        1 MOL     -0.032024
     33 H13         3.4250    5.5250   -0.1160 hc        1 MOL     -0.032024
     34 H14         3.5560    6.2830    2.2390 hc        1 MOL      0.114399
     35 H15         1.9560    5.6070    2.5630 hc        1 MOL      0.114399
     36 H16         1.1210    7.2790    0.5060 hx        1 MOL      0.078044
     37 H17         2.7950    7.8710    0.6500 hx        1 MOL      0.078044
     38 H18         2.2700    8.8300    2.7680 hn        1 MOL      0.273778
     39 H19         1.0660    9.2420    1.7740 hn        1 MOL      0.273778
     40 H20         0.9160    8.0790    2.8890 hn        1 MOL      0.273778
     41 N4          6.2180    2.0100    2.3410 n         1 MOL     -0.073179
     42 C13         5.9310    1.2270    1.1510 c3        1 MOL     -0.597932
     43 C14         7.1350    0.2400    0.8640 c         1 MOL      0.556154
     44 O6          7.7180   -0.4340    1.7210 o         1 MOL     -0.506040
     45 C15         4.6710    0.3780    1.2720 c3        1 MOL     -0.139039
     46 C16         4.3120   -0.4630    0.0620 c         1 MOL      0.489551
     47 O7          4.1220    0.0780   -1.0450 o         1 MOL     -0.552173
     48 O8          4.2910   -1.7020    0.2830 o         1 MOL     -0.552173
     49 H21         6.7790    1.6470    3.0940 hn        1 MOL      0.233322
     50 H22         5.8070    1.8860    0.2860 h1        1 MOL      0.240142
     51 H23         3.7950    0.9580    1.5550 hc        1 MOL      0.070222
     52 H24         4.7870   -0.3810    2.0530 hc        1 MOL      0.070222
     53 N5          7.3650    0.0190   -0.4370 n         1 MOL     -0.237388
     54 C17         8.3340   -0.9260   -1.1200 c3        1 MOL     -0.185432
     55 C18         7.9210   -2.3630   -1.2410 c         1 MOL      0.432161
     56 O9          8.8510   -3.1500   -1.5570 o         1 MOL     -0.541004
     57 H25         6.8490    0.5780   -1.1010 hn        1 MOL      0.297036
     58 H26         9.2890   -0.8240   -0.6260 h1        1 MOL      0.123691
     59 H27         8.3790   -0.5420   -2.1360 h1        1 MOL      0.123691
     60 N6          6.6800   -2.7370   -1.0230 n         1 MOL      0.006491
     61 C19         6.1900   -4.0580   -1.4390 c3        1 MOL      0.155323
     62 C20         6.5420   -4.4110   -2.8600 c         1 MOL      0.470802
     63 O10         7.1220   -5.4240   -3.1350 o         1 MOL     -0.545982
     64 C21         6.6200   -5.1210   -0.4650 c3        1 MOL      0.101368
     65 C22         6.4820   -4.8200    1.0120 c         1 MOL      0.424132
     66 O11         7.5380   -4.7590    1.7100 o         1 MOL     -0.625968
     67 O12         5.3830   -4.5950    1.5700 o         1 MOL     -0.625968
     68 H28         5.9620   -2.1770   -0.5760 hn        1 MOL      0.082124
     69 H29         5.1080   -3.9750   -1.3180 h1        1 MOL     -0.032577
     70 H30         7.6400   -5.4540   -0.6630 hc        1 MOL     -0.027573
     71 H31         5.9740   -5.9470   -0.7230 hc        1 MOL     -0.027573
     72 N7          6.0860   -3.6430   -3.8430 n         1 MOL     -0.426332
     73 C23         5.1530   -2.5460   -3.6450 c3        1 MOL     -0.154489
     74 C24         3.7760   -3.1830   -3.3930 c         1 MOL      0.565664
     75 O13         3.2670   -3.9950   -4.1570 o         1 MOL     -0.583400
     76 H32         6.3380   -3.9800   -4.7590 hn        1 MOL      0.314966
     77 H33         5.0080   -2.1020   -4.6290 h1        1 MOL      0.109546
     78 H34         5.3760   -1.8120   -2.8660 h1        1 MOL      0.109546
     79 N8          3.0370   -2.7860   -2.3580 n         1 MOL     -0.285870
     80 C25         1.6780   -3.2410   -1.9970 c3        1 MOL     -0.043237
     81 C26         1.0100   -2.2780   -1.0090 c         1 MOL      0.438134
     82 O14         1.3800   -2.2500    0.1700 o         1 MOL     -0.287554
     83 C27         1.7420   -4.7240   -1.5220 c3        1 MOL      0.405320
     84 C28         0.4120   -5.2430   -1.0120 c3        1 MOL     -0.601331
     85 O15         2.7170   -4.8760   -0.4590 oh        1 MOL     -0.655973
     86 H35         3.5860   -2.2490   -1.7060 hn        1 MOL      0.061722
     87 H36         1.0960   -3.2370   -2.9290 h1        1 MOL      0.052246
     88 H37         2.0740   -5.3290   -2.3670 h1        1 MOL      0.037260
     89 H38         3.1200   -5.7440   -0.5430 ho        1 MOL      0.411479
     90 H39         0.0920   -4.5840   -0.2150 hc        1 MOL      0.151270
     91 H40        -0.3500   -5.2160   -1.7970 hc        1 MOL      0.151270
     92 H41         0.5960   -6.2250   -0.5710 hc        1 MOL      0.151270
     93 N9          0.0960   -1.4410   -1.4550 n         1 MOL     -0.457513
     94 C29        -0.7770   -0.6870   -0.5650 c3        1 MOL     -0.043245
     95 C30        -1.6450   -1.5400    0.3830 c         1 MOL      0.571858
     96 O16        -1.2620   -2.6460    0.8340 o         1 MOL     -0.595514
     97 C31        -0.1110    0.4360    0.2730 c3        1 MOL      0.196635
     98 C32         0.8200    1.3390   -0.6060 c3        1 MOL      0.024876
     99 C33        -1.2000    1.3670    0.9180 c3        1 MOL     -0.182424
    100 C34         0.3150    2.2610   -1.7330 c3        1 MOL     -0.478646
    101 H42        -0.2500   -1.6540   -2.3870 hn        1 MOL      0.325819
    102 H43        -1.5380   -0.3390   -1.2660 h1        1 MOL      0.073492
    103 H44         0.5430   -0.0130    1.0170 hc        1 MOL     -0.051804
    104 H45         1.5830    0.6500   -0.9710 hc        1 MOL      0.064379
    105 H46         1.4700    1.9880   -0.0180 hc        1 MOL      0.064379
    106 H47        -1.7740    0.8660    1.6940 hc        1 MOL      0.026449
    107 H48        -0.6960    2.1080    1.5410 hc        1 MOL      0.026449
    108 H49        -1.8070    1.7450    0.0960 hc        1 MOL      0.026449
    109 H50        -0.2890    3.1000   -1.3900 hc        1 MOL      0.126003
    110 H51         1.2260    2.6100   -2.2130 hc        1 MOL      0.126003
    111 H52        -0.1850    1.6200   -2.4600 hc        1 MOL      0.126003
    112 N10        -2.9140   -1.2210    0.6050 n         1 MOL     -0.377106
    113 C35        -3.9380   -1.9520    1.3840 c3        1 MOL     -0.092191
    114 C36        -5.2210   -2.0760    0.5950 c         1 MOL      0.635187
    115 O17        -5.4650   -1.1890   -0.2220 o         1 MOL     -0.550361
    116 C37        -4.2620   -1.2140    2.6510 c3        1 MOL      0.217507
    117 C38        -4.8100    0.2040    2.6480 c3        1 MOL     -0.081116
    118 O18        -3.0540   -1.1460    3.3750 oh        1 MOL     -0.598077
    119 H53        -3.1700   -0.3330    0.1790 hn        1 MOL      0.243918
    120 H54        -3.5960   -2.9810    1.5530 h1        1 MOL      0.147610
    121 H55        -4.9430   -1.7940    3.2780 h1        1 MOL      0.023525
    122 H56        -3.2880   -0.5370    4.0710 ho        1 MOL      0.387142
    123 H57        -5.5680    0.5320    1.9320 hc        1 MOL      0.038346
    124 H58        -5.2230    0.4210    3.6370 hc        1 MOL      0.038346
    125 H59        -3.9590    0.8620    2.4560 hc        1 MOL      0.038346
    126 N11        -5.9020   -3.2320    0.6230 n         1 MOL     -0.382180
    127 C39        -7.1720   -3.4600   -0.0440 c3        1 MOL     -0.311533
    128 C40        -8.3180   -2.4160    0.1700 c         1 MOL      0.640955
    129 O19        -8.7950   -2.3080    1.2930 o         1 MOL     -0.538737
    130 C41        -7.6930   -4.8810    0.2820 c3        1 MOL      0.491900
    131 C42        -8.9730   -5.3380   -0.3930 c3        1 MOL     -0.272507
    132 O20        -6.7270   -5.8550   -0.0030 oh        1 MOL     -0.624884
    133 H60        -5.5250   -3.9580    1.2140 hn        1 MOL      0.247304
    134 H61        -6.9520   -3.4440   -1.1110 h1        1 MOL      0.173198
    135 H62        -7.9680   -5.0800    1.3150 h1        1 MOL     -0.010283
    136 H63        -6.8970   -6.6490    0.5080 ho        1 MOL      0.396286
    137 H64        -9.6840   -4.5450   -0.1800 hc        1 MOL      0.056471
    138 H65        -8.7820   -5.4030   -1.4700 hc        1 MOL      0.056471
    139 H66        -9.3500   -6.2760    0.0140 hc        1 MOL      0.056471
    140 N12        -8.7480   -1.7640   -0.8780 n         1 MOL     -0.498156
    141 C43        -9.8070   -0.7210   -0.9840 c3        1 MOL      0.204668
    142 C44        -9.4360    0.6060   -0.2370 c         1 MOL      0.545477
    143 O21        -9.1250    0.5460    0.9740 o         1 MOL     -0.481638
    144 C45       -11.1900   -1.3610   -0.5690 c3        1 MOL     -0.382671
    145 C46       -12.1920   -0.2020   -0.9750 c3        1 MOL      0.253370
    146 C47       -13.5620   -0.7640   -0.6120 c3        1 MOL      0.138765
    147 C48       -14.6510    0.1380   -1.1830 c3        1 MOL      0.047107
    148 N13       -16.0530   -0.3270   -0.9940 n4        1 MOL     -0.372634
    149 H67        -8.1990   -1.9570   -1.7000 hn        1 MOL      0.254797
    150 H68        -9.8470   -0.5110   -2.0540 h1        1 MOL      0.049888
    151 H69       -11.2350   -1.6140    0.4920 hc        1 MOL      0.123192
    152 H70       -11.2720   -2.2590   -1.1840 hc        1 MOL      0.123192
    153 H71       -12.0980   -0.1360   -2.0540 hc        1 MOL     -0.041300
    154 H72       -12.1350    0.7210   -0.4070 hc        1 MOL     -0.041300
    155 H73       -13.6260   -0.8480    0.4740 hc        1 MOL     -0.028090
    156 H74       -13.6440   -1.7390   -1.0820 hc        1 MOL     -0.028090
    157 H75       -14.3750    0.1830   -2.2440 hx        1 MOL      0.060246
    158 H76       -14.4820    1.1150   -0.7450 hx        1 MOL      0.060246
    159 H77       -16.7200    0.4130   -1.1620 hn        1 MOL      0.333707
    160 H78       -16.2130   -1.1570   -1.5430 hn        1 MOL      0.333707
    161 H79       -16.2340   -0.5970   -0.0330 hn        1 MOL      0.333707
    162 N14        -9.4850    1.6890   -0.9970 n         1 MOL     -0.693465
    163 C49        -9.0740    2.9870   -0.4960 c3        1 MOL      0.530559
    164 C50        -7.5460    3.3670   -0.6370 c         1 MOL      0.290753
    165 O22        -7.1090    4.2430    0.1380 o         1 MOL     -0.522215
    166 C51       -10.0980    4.0670   -1.0510 c3        1 MOL     -0.016404
    167 C52       -10.0040    5.1880    0.0110 c3        1 MOL     -0.164553
    168 C53       -11.0970    6.2260   -0.1190 c         1 MOL      0.699051
    169 O23       -10.9360    7.2450   -0.8500 o         1 MOL     -0.713584
    170 O24       -12.2180    6.0110    0.4600 o         1 MOL     -0.713584
    171 H80        -9.8860    1.7630   -1.9190 hn        1 MOL      0.247804
    172 H81        -9.1310    2.9170    0.5860 h1        1 MOL     -0.015219
    173 H82       -11.0780    3.5830   -1.0820 hc        1 MOL      0.002235
    174 H83        -9.7390    4.5150   -1.9760 hc        1 MOL      0.002235
    175 H84        -9.0430    5.7080    0.0230 hc        1 MOL      0.024193
    176 H85       -10.1730    4.8200    1.0170 hc        1 MOL      0.024193
    177 N15        -6.7110    2.8160   -1.5000 n         1 MOL     -0.274569
    178 C54        -7.0160    2.1670   -2.8040 c3        1 MOL     -0.010862
    179 H86        -7.1120    1.0910   -2.6610 h1        1 MOL      0.044295
    180 H87        -7.9500    2.5650   -3.1990 h1        1 MOL      0.044295
    181 H88        -6.2090    2.3670   -3.5090 h1        1 MOL      0.044295
    182 H89        -5.7710    3.1350   -1.3280 hn        1 MOL      0.269890
    183 Ca1         3.2090   -3.4540    1.9290 Ca        1 MOL      1.601399
    184 O25         5.1500   -2.5080    3.3200 oh        1 MOL     -0.830087
    185 H90         5.9890   -2.8850    3.0650 ho        1 MOL      0.410653
    186 H91         5.3730   -1.8810    4.0060 ho        1 MOL      0.410653
    187 O26         2.9120   -4.4580    4.3820 oh        1 MOL     -0.830087
    188 H92         3.5560   -4.3590    5.0890 ho        1 MOL      0.410653
    189 H93         2.4090   -5.2340    4.6190 ho        1 MOL      0.410653
    190 O27         2.4280   -6.0590    2.0500 oh        1 MOL     -0.830087
    191 H94         1.5920   -6.3920    2.3640 ho        1 MOL      0.410653
    192 H95         2.9590   -6.8370    1.9160 ho        1 MOL      0.410653
    193 O28         2.1200   -1.1750    3.2430 oh        1 MOL     -0.830087
    194 H96         2.6590   -0.5540    3.7380 ho        1 MOL      0.410653
    195 H97         1.2210   -0.9390    3.4610 ho        1 MOL      0.410653
    196 O29         0.4460   -3.6680    2.6390 oh        1 MOL     -0.830087
    197 H98        -0.1020   -3.3680    1.9180 ho        1 MOL      0.410653
    198 H99        -0.0200   -3.3850    3.4280 ho        1 MOL      0.410653
@<TRIPOS>BOND
     1    1    2 1   
     2    1    4 1   
     3    1    5 1   
     4    1    6 1   
     5    2    3 2   
     6    2    7 1   
     7    7    8 1   
     8    7   15 1   
     9    8    9 1   
    10    8   11 1   
    11    8   16 1   
    12    9   10 2   
    13    9   19 1   
    14   11   12 1   
    15   11   17 1   
    16   11   18 1   
    17   12   13 1   
    18   12   14 1   
    19   19   20 1   
    20   19   28 1   
    21   20   21 1   
    22   20   23 1   
    23   20   29 1   
    24   21   22 2   
    25   21   41 1   
    26   23   24 1   
    27   23   30 1   
    28   23   31 1   
    29   24   25 1   
    30   24   32 1   
    31   24   33 1   
    32   25   26 1   
    33   25   34 1   
    34   25   35 1   
    35   26   27 1   
    36   26   36 1   
    37   26   37 1   
    38   27   38 1   
    39   27   39 1   
    40   27   40 1   
    41   41   42 1   
    42   41   49 1   
    43   42   43 1   
    44   42   45 1   
    45   42   50 1   
    46   43   44 2   
    47   43   53 1   
    48   45   46 1   
    49   45   51 1   
    50   45   52 1   
    51   46   47 1   
    52   46   48 1   
    53   53   54 1   
    54   53   57 1   
    55   54   55 1   
    56   54   58 1   
    57   54   59 1   
    58   55   56 2   
    59   55   60 1   
    60   60   61 1   
    61   60   68 1   
    62   61   62 1   
    63   61   64 1   
    64   61   69 1   
    65   62   63 2   
    66   62   72 1   
    67   64   65 1   
    68   64   70 1   
    69   64   71 1   
    70   65   66 1   
    71   65   67 1   
    72   72   73 1   
    73   72   76 1   
    74   73   74 1   
    75   73   77 1   
    76   73   78 1   
    77   74   75 2   
    78   74   79 1   
    79   79   80 1   
    80   79   86 1   
    81   80   81 1   
    82   80   83 1   
    83   80   87 1   
    84   81   82 2   
    85   81   93 1   
    86   83   84 1   
    87   83   85 1   
    88   83   88 1   
    89   84   90 1   
    90   84   91 1   
    91   84   92 1   
    92   85   89 1   
    93   93   94 1   
    94   93  101 1   
    95   94   95 1   
    96   94   97 1   
    97   94  102 1   
    98   95   96 2   
    99   95  112 1   
   100   97   98 1   
   101   97   99 1   
   102   97  103 1   
   103   98  100 1   
   104   98  104 1   
   105   98  105 1   
   106   99  106 1   
   107   99  107 1   
   108   99  108 1   
   109  100  109 1   
   110  100  110 1   
   111  100  111 1   
   112  112  113 1   
   113  112  119 1   
   114  113  114 1   
   115  113  116 1   
   116  113  120 1   
   117  114  115 2   
   118  114  126 1   
   119  116  117 1   
   120  116  118 1   
   121  116  121 1   
   122  117  123 1   
   123  117  124 1   
   124  117  125 1   
   125  118  122 1   
   126  126  127 1   
   127  126  133 1   
   128  127  128 1   
   129  127  130 1   
   130  127  134 1   
   131  128  129 2   
   132  128  140 1   
   133  130  131 1   
   134  130  132 1   
   135  130  135 1   
   136  131  137 1   
   137  131  138 1   
   138  131  139 1   
   139  132  136 1   
   140  140  141 1   
   141  140  149 1   
   142  141  142 1   
   143  141  144 1   
   144  141  150 1   
   145  142  143 2   
   146  142  162 1   
   147  144  145 1   
   148  144  151 1   
   149  144  152 1   
   150  145  146 1   
   151  145  153 1   
   152  145  154 1   
   153  146  147 1   
   154  146  155 1   
   155  146  156 1   
   156  147  148 1   
   157  147  157 1   
   158  147  158 1   
   159  148  159 1   
   160  148  160 1   
   161  148  161 1   
   162  162  163 1   
   163  162  171 1   
   164  163  164 1   
   165  163  166 1   
   166  163  172 1   
   167  164  165 2   
   168  164  177 1   
   169  166  167 1   
   170  166  173 1   
   171  166  174 1   
   172  167  168 1   
   173  167  175 1   
   174  167  176 1   
   175  168  169 1   
   176  168  170 1   
   177  177  178 1   
   178  177  182 1   
   179  178  179 1   
   180  178  180 1   
   181  178  181 1   
   182  184  185 1   
   183  184  186 1   
   184  187  188 1   
   185  187  189 1   
   186  190  191 1   
   187  190  192 1   
   188  193  194 1   
   189  193  195 1   
   190  196  197 1   
   191  196  198 1   
@<TRIPOS>SUBSTRUCTURE
     1 MOL         1 TEMP              0 ****  ****    0 ROOT
