@<TRIPOS>MOLECULE
MOL
  195   189     1     0     0
SMALL
resp


@<TRIPOS>ATOM
      1 C1          7.0080    0.6700    5.3990 c3        1 MOL     -0.200735
      2 C2          6.3050    0.6080    4.0780 c         1 MOL      0.773937
      3 O1          5.9240    1.6060    3.5270 o         1 MOL     -0.625177
      4 H1          7.8780    1.3200    5.3160 hc        1 MOL      0.041021
      5 H2          6.3290    1.0660    6.1550 hc        1 MOL      0.041021
      6 H3          7.3290   -0.3320    5.6880 hc        1 MOL      0.041021
      7 N1          5.9770   -0.5720    3.6360 n         1 MOL     -0.481762
      8 C3          5.3740   -0.8860    2.3370 c3        1 MOL      0.307656
      9 C4          3.9180   -0.5150    2.0800 c         1 MOL      0.075281
     10 O2          3.4330   -0.9320    1.0860 o         1 MOL     -0.215984
     11 C5          5.7330   -2.3500    2.0720 c3        1 MOL     -0.291471
     12 C6          7.1910   -2.8450    2.2330 c         1 MOL      0.692117
     13 O3          7.6580   -3.0740    3.3850 o         1 MOL     -0.700297
     14 O4          7.8810   -3.0030    1.1760 o         1 MOL     -0.700297
     15 H4          6.1250   -1.3690    4.2420 hn        1 MOL      0.234860
     16 H5          6.0040   -0.2510    1.7010 h1        1 MOL      0.035713
     17 H6          5.3840   -2.5890    1.0620 hc        1 MOL      0.036192
     18 H7          5.2090   -2.9640    2.8140 hc        1 MOL      0.036192
     19 N2          3.3040    0.2910    2.8980 n         1 MOL     -0.155704
     20 C7          1.8370    0.5280    2.8840 c3        1 MOL      0.088206
     21 C8          1.4560    1.9640    2.4930 c         1 MOL      0.403871
     22 O5          1.9720    2.9440    3.1060 o         1 MOL     -0.535291
     23 C9          1.2480    0.1450    4.2970 c3        1 MOL     -0.386937
     24 C10         1.4130   -1.4120    4.4150 c3        1 MOL      0.178713
     25 C11         0.5090   -2.1800    5.4830 c3        1 MOL     -0.168951
     26 C12        -0.9150   -2.2940    5.1180 c3        1 MOL      0.348215
     27 N3         -1.7020   -2.9910    6.0920 n4        1 MOL     -0.545750
     28 H8          3.8570    0.8150    3.5590 hn        1 MOL      0.227408
     29 H9          1.2930   -0.1040    2.1860 h1        1 MOL      0.036007
     30 H10         0.1960    0.4370    4.2090 hc        1 MOL      0.109595
     31 H11         1.8480    0.6690    5.0410 hc        1 MOL      0.109595
     32 H12         2.4620   -1.5880    4.6720 hc        1 MOL      0.004341
     33 H13         1.1740   -1.9000    3.4800 hc        1 MOL      0.004341
     34 H14         0.5400   -1.7490    6.4760 hc        1 MOL      0.036904
     35 H15         0.8630   -3.2010    5.6170 hc        1 MOL      0.036904
     36 H16        -0.9790   -2.9680    4.2570 hx        1 MOL      0.031354
     37 H17        -1.3710   -1.3320    4.8740 hx        1 MOL      0.031354
     38 H18        -2.6860   -2.7650    6.0130 hn        1 MOL      0.357286
     39 H19        -1.6780   -4.0010    6.0200 hn        1 MOL      0.357286
     40 H20        -1.5310   -2.7220    7.0510 hn        1 MOL      0.357286
     41 N4          0.4810    2.2620    1.7120 n         1 MOL     -0.146501
     42 C13        -0.5980    1.4270    1.0630 c3        1 MOL      0.136612
     43 C14        -1.3080    0.2570    1.8560 c         1 MOL      0.514052
     44 O6         -0.8030   -0.9090    1.8880 o         1 MOL     -0.610819
     45 C15        -0.1350    0.8750   -0.2830 c3        1 MOL     -0.256622
     46 C16         0.0600    1.9900   -1.3730 c         1 MOL      0.667898
     47 O7         -0.5900    3.0430   -1.1230 o         1 MOL     -0.677640
     48 O8          0.7360    1.7360   -2.4000 o         1 MOL     -0.677640
     49 H21         0.3880    3.2590    1.6100 hn        1 MOL      0.132063
     50 H22        -1.3140    2.1820    0.7370 h1        1 MOL     -0.119771
     51 H23        -1.0110    0.3050   -0.6180 hc        1 MOL      0.107521
     52 H24         0.7530    0.2500   -0.2420 hc        1 MOL      0.107521
     53 N5         -2.3590    0.5460    2.5940 n         1 MOL     -0.379676
     54 C17        -3.1120    1.8210    2.5650 c3        1 MOL     -0.040727
     55 C18        -4.2980    1.7510    3.5160 c         1 MOL      0.617418
     56 O9         -4.1820    1.0100    4.4650 o         1 MOL     -0.569634
     57 H25        -2.8200   -0.2000    3.0960 hn        1 MOL      0.269266
     58 H26        -3.4480    1.9820    1.5380 h1        1 MOL      0.115737
     59 H27        -2.4340    2.6120    2.8910 h1        1 MOL      0.115737
     60 N6         -5.4370    2.3630    3.1520 n         1 MOL     -0.616538
     61 C19        -5.5370    3.4250    2.1700 c3        1 MOL      0.255048
     62 C20        -6.4090    2.8480    1.0360 c         1 MOL      0.262248
     63 O10        -7.3680    2.1040    1.2320 o         1 MOL     -0.422404
     64 C21        -6.0740    4.7370    2.7660 c3        1 MOL      0.033028
     65 C22        -7.3600    4.5440    3.6290 c         1 MOL      0.595719
     66 O11        -8.4390    4.7860    2.9320 o         1 MOL     -0.640854
     67 O12        -7.2440    4.1600    4.8150 o         1 MOL     -0.640854
     68 H28        -6.2430    1.9900    3.6280 hn        1 MOL      0.385271
     69 H29        -4.5770    3.5830    1.6620 h1        1 MOL     -0.086746
     70 H30        -6.1680    5.4440    1.9450 hc        1 MOL     -0.050530
     71 H31        -5.2560    5.1690    3.3440 hc        1 MOL     -0.050530
     72 N7         -6.1950    3.2750   -0.2130 n         1 MOL     -0.066985
     73 C23        -7.0840    2.9820   -1.3880 c3        1 MOL     -0.423223
     74 C24        -6.7860    1.6650   -2.0270 c         1 MOL      0.685963
     75 O13        -7.5770    1.3260   -2.9110 o         1 MOL     -0.566510
     76 H32        -5.4130    3.9190   -0.3220 hn        1 MOL      0.151534
     77 H33        -7.0170    3.7050   -2.2020 h1        1 MOL      0.176989
     78 H34        -8.0670    2.8960   -0.9140 h1        1 MOL      0.176989
     79 N8         -5.6810    1.0370   -1.6480 n         1 MOL     -0.435731
     80 C25        -5.2690   -0.2520   -2.2090 c3        1 MOL      0.262335
     81 C26        -5.4690   -1.3950   -1.2420 c         1 MOL      0.422622
     82 O14        -5.3500   -1.1810    0.0320 o         1 MOL     -0.544198
     83 C27        -3.8100   -0.3200   -2.7520 c3        1 MOL      0.222949
     84 C28        -3.7670    0.4280   -4.1470 c3        1 MOL     -0.273493
     85 O15        -3.2300   -1.6090   -2.9220 oh        1 MOL     -0.620445
     86 H35        -5.0220    1.5010   -1.0220 hn        1 MOL      0.184861
     87 H36        -5.9030   -0.5930   -3.0310 h1        1 MOL     -0.003915
     88 H37        -3.1730    0.1550   -2.0010 h1        1 MOL      0.034080
     89 H38        -2.3400   -1.4100   -3.2200 ho        1 MOL      0.443479
     90 H39        -4.1900   -0.1360   -4.9850 hc        1 MOL      0.065333
     91 H40        -4.3030    1.3560   -3.9800 hc        1 MOL      0.065333
     92 H41        -2.7670    0.5840   -4.5350 hc        1 MOL      0.065333
     93 N9         -5.6700   -2.6120   -1.7570 n         1 MOL     -0.267111
     94 C29        -5.8640   -3.8590   -0.9650 c3        1 MOL     -0.141027
     95 C30        -4.6220   -4.7390   -0.8360 c         1 MOL      0.503869
     96 O16        -4.6140   -5.8610   -0.2960 o         1 MOL     -0.530773
     97 C31        -7.0510   -4.6420   -1.5640 c3        1 MOL      0.127181
     98 C32        -8.3290   -3.8320   -1.9360 c3        1 MOL     -0.040702
     99 C33        -7.5320   -5.6920   -0.5220 c3        1 MOL     -0.096604
    100 C34        -8.9200   -2.8870   -0.8060 c3        1 MOL     -0.358058
    101 H42        -5.5970   -2.6850   -2.7630 hn        1 MOL      0.289112
    102 H43        -6.1830   -3.6240    0.0500 h1        1 MOL      0.145947
    103 H44        -6.7600   -5.1920   -2.4540 hc        1 MOL     -0.002173
    104 H45        -9.1250   -4.5030   -2.2450 hc        1 MOL      0.012957
    105 H46        -8.0440   -3.2160   -2.7940 hc        1 MOL      0.012957
    106 H47        -6.8450   -6.5380   -0.4980 hc        1 MOL      0.026943
    107 H48        -7.5470   -5.3160    0.4980 hc        1 MOL      0.026943
    108 H49        -8.4580   -6.1920   -0.7920 hc        1 MOL      0.026943
    109 H50        -9.3600   -3.5840   -0.0930 hc        1 MOL      0.109262
    110 H51        -8.2380   -2.1360   -0.4020 hc        1 MOL      0.109262
    111 H52        -9.7000   -2.3430   -1.3400 hc        1 MOL      0.109262
    112 N10        -3.4340   -4.2780   -1.3160 n         1 MOL     -0.229610
    113 C35        -2.0710   -4.8300   -1.0260 c3        1 MOL     -0.084479
    114 C36        -0.9930   -3.7760   -0.6970 c         1 MOL      0.532069
    115 O17        -1.1030   -2.5770   -0.9820 o         1 MOL     -0.495730
    116 C37        -1.4840   -5.5920   -2.2180 c3        1 MOL      0.361919
    117 C38        -1.4370   -4.6770   -3.4830 c3        1 MOL     -0.261359
    118 O18        -2.3750   -6.6520   -2.4190 oh        1 MOL     -0.607697
    119 H53        -3.4420   -3.4380   -1.8790 hn        1 MOL      0.120747
    120 H54        -2.0990   -5.4130   -0.1100 h1        1 MOL      0.059724
    121 H55        -0.5020   -6.0030   -2.0080 h1        1 MOL     -0.016063
    122 H56        -2.3940   -7.1930   -1.6290 ho        1 MOL      0.378611
    123 H57        -0.8850   -3.7430   -3.3800 hc        1 MOL      0.083664
    124 H58        -0.9590   -5.2290   -4.2940 hc        1 MOL      0.083664
    125 H59        -2.4040   -4.4120   -3.8940 hc        1 MOL      0.083664
    126 N11         0.2010   -4.2390   -0.2950 n         1 MOL     -0.521508
    127 C39         1.3780   -3.4510   -0.0980 c3        1 MOL      0.159943
    128 C40         2.0270   -3.0060   -1.3600 c         1 MOL      0.393294
    129 O19         1.7810   -3.6020   -2.3970 o         1 MOL     -0.551115
    130 C41         2.4310   -4.1350    0.8700 c3        1 MOL      0.323840
    131 C42         2.9350   -5.5210    0.4210 c3        1 MOL     -0.436571
    132 O20         1.8940   -4.1980    2.1620 oh        1 MOL     -0.685879
    133 H60         0.3280   -5.2290   -0.1340 hn        1 MOL      0.285439
    134 H61         1.1410   -2.5210    0.4110 h1        1 MOL      0.179811
    135 H62         3.3090   -3.4840    0.9100 h1        1 MOL      0.061885
    136 H63         2.3800   -4.8300    2.6850 ho        1 MOL      0.414649
    137 H64         3.6370   -5.8630    1.1750 hc        1 MOL      0.117303
    138 H65         2.0830   -6.2060    0.3480 hc        1 MOL      0.117303
    139 H66         3.5070   -5.3590   -0.4950 hc        1 MOL      0.117303
    140 N12         2.8700   -1.9580   -1.3940 n         1 MOL     -0.104154
    141 C43         3.3730   -1.3380   -2.6740 c3        1 MOL     -0.097313
    142 C44         3.8130    0.0880   -2.5080 c         1 MOL      0.553189
    143 O21         3.8920    0.7260   -3.5210 o         1 MOL     -0.621174
    144 C45         4.4580   -2.2250   -3.2200 c3        1 MOL     -0.524840
    145 C46         5.7530   -2.4390   -2.2920 c3        1 MOL      0.419151
    146 C47         6.7970   -3.2590   -2.9460 c3        1 MOL     -0.281645
    147 C48         7.4690   -2.5290   -4.1550 c3        1 MOL     -0.086838
    148 N13         8.2310   -1.2880   -3.7370 n4        1 MOL     -0.388742
    149 H67         3.0820   -1.4780   -0.5300 hn        1 MOL     -0.106115
    150 H68         2.5540   -1.1880   -3.3840 h1        1 MOL      0.154503
    151 H69         4.7580   -1.7220   -4.1360 hc        1 MOL      0.157831
    152 H70         3.9900   -3.1900   -3.4040 hc        1 MOL      0.157831
    153 H71         5.4270   -2.8880   -1.3540 hc        1 MOL     -0.070122
    154 H72         6.1480   -1.4890   -1.9380 hc        1 MOL     -0.070122
    155 H73         6.3440   -4.1840   -3.3020 hc        1 MOL      0.129593
    156 H74         7.6160   -3.4300   -2.2590 hc        1 MOL      0.129593
    157 H75         6.7770   -2.2050   -4.9350 hx        1 MOL      0.117865
    158 H76         8.1370   -3.1870   -4.7180 hx        1 MOL      0.117865
    159 H77         8.9700   -1.5220   -3.0810 hn        1 MOL      0.334204
    160 H78         8.6880   -0.9530   -4.5720 hn        1 MOL      0.334204
    161 H79         7.6600   -0.5690   -3.2930 hn        1 MOL      0.334204
    162 N14         4.0620    0.6330   -1.3530 n         1 MOL      0.237055
    163 C49         4.5680    2.0030   -1.1470 c3        1 MOL     -0.808400
    164 C50         6.0960    1.9470   -0.9650 c         1 MOL      0.456875
    165 O22         6.6120    1.1430   -0.1410 o         1 MOL     -0.450290
    166 C51         3.8480    2.6960    0.0480 c3        1 MOL      1.160317
    167 C52         4.3020    4.1360    0.2610 c3        1 MOL     -0.768452
    168 C53         4.0030    4.9200   -1.0410 c         1 MOL      0.717243
    169 O23         4.9900    5.0950   -1.8260 o         1 MOL     -0.708375
    170 O24         2.8190    5.2140   -1.3220 o         1 MOL     -0.708375
    171 H80         4.0760   -0.0140   -0.5710 hn        1 MOL      0.090500
    172 H81         4.2250    2.6470   -1.9560 h1        1 MOL      0.232055
    173 H82         4.0290    2.1620    0.9790 hc        1 MOL     -0.331319
    174 H83         2.7720    2.6570   -0.1140 hc        1 MOL     -0.331319
    175 H84         5.3800    4.1530    0.4570 hc        1 MOL      0.209426
    176 H85         3.7090    4.5610    1.0570 hc        1 MOL      0.209426
    177 N15         6.8110    2.8790   -1.6130 n         1 MOL     -0.309724
    178 C54         8.2680    2.9930   -1.3920 c3        1 MOL     -0.146606
    179 H86         8.6390    3.8960   -1.8760 h1        1 MOL      0.083010
    180 H87         8.4700    3.0450   -0.3230 h1        1 MOL      0.083010
    181 H88         8.7690    2.1230   -1.8150 h1        1 MOL      0.083010
    182 H89         6.4290    3.5480   -2.2670 hn        1 MOL      0.342485
    183 Ca1         0.2380    5.4540   -1.7070 Ca        1 MOL      1.629858
    184 O25        -1.3690    4.3170   -3.4940 oh        1 MOL     -0.803407
    185 H90        -1.0390    3.8040   -4.2270 ho        1 MOL      0.403495
    186 H91        -2.3070    4.3870   -3.6590 ho        1 MOL      0.403495
    187 O26         1.4630    4.0100   -3.6950 oh        1 MOL     -0.803407
    188 H92         2.3230    3.9330   -4.1060 ho        1 MOL      0.403495
    189 H93         1.3210    3.1560   -3.2780 ho        1 MOL      0.403495
    190 O27        -1.2830    7.2420   -3.5400 oh        1 MOL     -0.803407
    191 H94        -1.0530    8.1230   -3.2550 ho        1 MOL      0.403495
    192 H95        -2.2110    7.1420   -3.3090 ho        1 MOL      0.403495
    193 O28         1.6970    7.0570   -3.5120 oh        1 MOL     -0.803407
    194 H96         1.7360    7.9890   -3.7320 ho        1 MOL      0.403495
    195 H97         2.0160    6.6070   -4.2880 ho        1 MOL      0.403495
@<TRIPOS>BOND
     1    1    2 1   
     2    1    4 1   
     3    1    5 1   
     4    1    6 1   
     5    2    3 2   
     6    2    7 1   
     7    7    8 1   
     8    7   15 1   
     9    8    9 1   
    10    8   11 1   
    11    8   16 1   
    12    9   10 2   
    13    9   19 1   
    14   11   12 1   
    15   11   17 1   
    16   11   18 1   
    17   12   13 1   
    18   12   14 1   
    19   19   20 1   
    20   19   28 1   
    21   20   21 1   
    22   20   23 1   
    23   20   29 1   
    24   21   22 2   
    25   21   41 1   
    26   23   24 1   
    27   23   30 1   
    28   23   31 1   
    29   24   25 1   
    30   24   32 1   
    31   24   33 1   
    32   25   26 1   
    33   25   34 1   
    34   25   35 1   
    35   26   27 1   
    36   26   36 1   
    37   26   37 1   
    38   27   38 1   
    39   27   39 1   
    40   27   40 1   
    41   41   42 1   
    42   41   49 1   
    43   42   43 1   
    44   42   45 1   
    45   42   50 1   
    46   43   44 2   
    47   43   53 1   
    48   45   46 1   
    49   45   51 1   
    50   45   52 1   
    51   46   47 1   
    52   46   48 1   
    53   53   54 1   
    54   53   57 1   
    55   54   55 1   
    56   54   58 1   
    57   54   59 1   
    58   55   56 2   
    59   55   60 1   
    60   60   61 1   
    61   60   68 1   
    62   61   62 1   
    63   61   64 1   
    64   61   69 1   
    65   62   63 2   
    66   62   72 1   
    67   64   65 1   
    68   64   70 1   
    69   64   71 1   
    70   65   66 1   
    71   65   67 1   
    72   72   73 1   
    73   72   76 1   
    74   73   74 1   
    75   73   77 1   
    76   73   78 1   
    77   74   75 2   
    78   74   79 1   
    79   79   80 1   
    80   79   86 1   
    81   80   81 1   
    82   80   83 1   
    83   80   87 1   
    84   81   82 2   
    85   81   93 1   
    86   83   84 1   
    87   83   85 1   
    88   83   88 1   
    89   84   90 1   
    90   84   91 1   
    91   84   92 1   
    92   85   89 1   
    93   93   94 1   
    94   93  101 1   
    95   94   95 1   
    96   94   97 1   
    97   94  102 1   
    98   95   96 2   
    99   95  112 1   
   100   97   98 1   
   101   97   99 1   
   102   97  103 1   
   103   98  100 1   
   104   98  104 1   
   105   98  105 1   
   106   99  106 1   
   107   99  107 1   
   108   99  108 1   
   109  100  109 1   
   110  100  110 1   
   111  100  111 1   
   112  112  113 1   
   113  112  119 1   
   114  113  114 1   
   115  113  116 1   
   116  113  120 1   
   117  114  115 2   
   118  114  126 1   
   119  116  117 1   
   120  116  118 1   
   121  116  121 1   
   122  117  123 1   
   123  117  124 1   
   124  117  125 1   
   125  118  122 1   
   126  126  127 1   
   127  126  133 1   
   128  127  128 1   
   129  127  130 1   
   130  127  134 1   
   131  128  129 2   
   132  128  140 1   
   133  130  131 1   
   134  130  132 1   
   135  130  135 1   
   136  131  137 1   
   137  131  138 1   
   138  131  139 1   
   139  132  136 1   
   140  140  141 1   
   141  140  149 1   
   142  141  142 1   
   143  141  144 1   
   144  141  150 1   
   145  142  143 2   
   146  142  162 1   
   147  144  145 1   
   148  144  151 1   
   149  144  152 1   
   150  145  146 1   
   151  145  153 1   
   152  145  154 1   
   153  146  147 1   
   154  146  155 1   
   155  146  156 1   
   156  147  148 1   
   157  147  157 1   
   158  147  158 1   
   159  148  159 1   
   160  148  160 1   
   161  148  161 1   
   162  162  163 1   
   163  162  171 1   
   164  163  164 1   
   165  163  166 1   
   166  163  172 1   
   167  164  165 2   
   168  164  177 1   
   169  166  167 1   
   170  166  173 1   
   171  166  174 1   
   172  167  168 1   
   173  167  175 1   
   174  167  176 1   
   175  168  169 1   
   176  168  170 1   
   177  177  178 1   
   178  177  182 1   
   179  178  179 1   
   180  178  180 1   
   181  178  181 1   
   182  184  185 1   
   183  184  186 1   
   184  187  188 1   
   185  187  189 1   
   186  190  191 1   
   187  190  192 1   
   188  193  194 1   
   189  193  195 1   
@<TRIPOS>SUBSTRUCTURE
     1 MOL         1 TEMP              0 ****  ****    0 ROOT
