@<TRIPOS>MOLECULE
MOL
  195   189     1     0     0
SMALL
resp


@<TRIPOS>ATOM
      1 C1          4.7570   -5.8160   -2.3210 c3        1 MOL     -0.301068
      2 C2          4.4330   -4.4040   -1.6280 c         1 MOL      0.658582
      3 O1          3.8040   -4.2920   -0.5420 o         1 MOL     -0.559246
      4 H1          5.7760   -5.8050   -2.7080 hc        1 MOL      0.079933
      5 H2          4.6580   -6.6140   -1.5850 hc        1 MOL      0.079933
      6 H3          4.0580   -5.9890   -3.1400 hc        1 MOL      0.079933
      7 N1          4.8170   -3.2500   -2.1390 n         1 MOL     -0.463980
      8 C3          4.5950   -1.9040   -1.5930 c3        1 MOL     -0.127976
      9 C4          3.0970   -1.4070   -1.5610 c         1 MOL      0.368143
     10 O2          2.8410   -0.4170   -0.8690 o         1 MOL     -0.542839
     11 C5          5.5630   -0.9390   -2.2450 c3        1 MOL     -0.001612
     12 C6          5.4570   -0.9030   -3.7710 c         1 MOL      0.717197
     13 O3          5.8030   -1.9030   -4.3690 o         1 MOL     -0.725463
     14 O4          5.2690    0.1640   -4.3340 o         1 MOL     -0.725463
     15 H4          5.4560   -3.1810   -2.9190 hn        1 MOL      0.257516
     16 H5          4.8000   -1.9550   -0.5290 h1        1 MOL      0.132222
     17 H6          6.5480   -1.3550   -2.0040 hc        1 MOL      0.022732
     18 H7          5.5080    0.0700   -1.8300 hc        1 MOL      0.022732
     19 N2          2.1510   -2.1850   -2.0440 n         1 MOL     -0.302194
     20 C7          0.7280   -1.8730   -2.0500 c3        1 MOL      0.281352
     21 C8          0.0310   -2.7940   -1.1170 c         1 MOL      0.566146
     22 O5          0.1910   -3.9940   -1.1690 o         1 MOL     -0.576074
     23 C9          0.1760   -2.0100   -3.4570 c3        1 MOL     -0.261208
     24 C10         0.5470   -0.7160   -4.2860 c3        1 MOL     -0.169407
     25 C11        -0.2710   -0.6170   -5.5620 c3        1 MOL      0.146733
     26 C12         0.1060   -1.6310   -6.5560 c3        1 MOL      0.151088
     27 N3         -0.5860   -1.5830   -7.8830 n4        1 MOL     -0.390217
     28 H8          2.5660   -3.0480   -2.3510 hn        1 MOL      0.225426
     29 H9          0.6150   -0.8470   -1.7050 h1        1 MOL      0.103398
     30 H10        -0.8990   -2.1640   -3.4540 hc        1 MOL      0.071217
     31 H11         0.6850   -2.8570   -3.9100 hc        1 MOL      0.071217
     32 H12         1.6170   -0.6880   -4.5020 hc        1 MOL      0.072553
     33 H13         0.3350    0.2050   -3.7480 hc        1 MOL      0.072553
     34 H14        -0.0820    0.3070   -6.1180 hc        1 MOL     -0.026150
     35 H15        -1.3380   -0.7320   -5.3760 hc        1 MOL     -0.026150
     36 H16        -0.1490   -2.6120   -6.1570 hx        1 MOL      0.045532
     37 H17         1.1890   -1.5220   -6.6980 hx        1 MOL      0.045532
     38 H18        -0.0170   -2.0490   -8.5690 hn        1 MOL      0.328333
     39 H19        -1.4530   -2.0900   -7.7900 hn        1 MOL      0.328333
     40 H20        -0.8370   -0.6450   -8.1840 hn        1 MOL      0.328333
     41 N4         -0.9190   -2.3130   -0.3350 n         1 MOL     -0.494752
     42 C13        -1.4230   -0.9820   -0.1200 c3        1 MOL      0.074379
     43 C14        -1.7760   -0.1410   -1.4330 c         1 MOL      0.499108
     44 O6         -1.1740    0.8440   -1.7850 o         1 MOL     -0.488534
     45 C15        -0.5300   -0.1940    0.8380 c3        1 MOL     -0.394133
     46 C16        -0.5200   -0.8660    2.2150 c         1 MOL      0.950169
     47 O7          0.5950   -0.9850    2.8160 o         1 MOL     -0.866747
     48 O8         -1.4880   -1.4360    2.7170 o         1 MOL     -0.866747
     49 H21        -1.3280   -3.0160    0.2710 hn        1 MOL      0.296032
     50 H22        -2.4090   -1.0840    0.3230 h1        1 MOL      0.056485
     51 H23        -1.0110    0.7790    0.8360 hc        1 MOL      0.136638
     52 H24         0.4470   -0.1360    0.3640 hc        1 MOL      0.136638
     53 N5         -2.7460   -0.6010   -2.2480 n         1 MOL     -0.439436
     54 C17        -3.5410   -1.8030   -2.0390 c3        1 MOL      0.067358
     55 C18        -4.4820   -2.0270   -3.2440 c         1 MOL      0.507078
     56 O9         -4.0660   -1.8450   -4.3990 o         1 MOL     -0.556682
     57 H25        -2.9270   -0.1750   -3.1450 hn        1 MOL      0.307079
     58 H26        -4.1240   -1.7470   -1.1260 h1        1 MOL      0.045597
     59 H27        -2.9300   -2.7050   -2.0800 h1        1 MOL      0.045597
     60 N6         -5.7740   -2.4370   -3.1420 n         1 MOL     -0.403777
     61 C19        -6.4870   -2.8070   -1.9270 c3        1 MOL      0.061380
     62 C20        -7.2710   -1.6880   -1.2560 c         1 MOL      0.529119
     63 O10        -7.3630   -0.6030   -1.8420 o         1 MOL     -0.482052
     64 C21        -7.3100   -4.0960   -2.0780 c3        1 MOL     -0.166009
     65 C22        -8.4120   -4.1950   -3.0730 c         1 MOL      0.691716
     66 O11        -9.4390   -4.9230   -2.9420 o         1 MOL     -0.662007
     67 O12        -8.2640   -3.6060   -4.1850 o         1 MOL     -0.662007
     68 H28        -6.3790   -2.3970   -3.9500 hn        1 MOL      0.288486
     69 H29        -5.7060   -3.0720   -1.2200 h1        1 MOL      0.002209
     70 H30        -7.7980   -4.1940   -1.1160 hc        1 MOL      0.010079
     71 H31        -6.6630   -4.9700   -2.1820 hc        1 MOL      0.010079
     72 N7         -7.9200   -1.9640   -0.0810 n         1 MOL     -0.310202
     73 C23        -8.6670   -0.9980    0.7540 c3        1 MOL     -0.547276
     74 C24        -7.7910    0.0120    1.4950 c         1 MOL      0.640862
     75 O13        -8.2240    1.0700    1.8430 o         1 MOL     -0.550910
     76 H32        -7.7900   -2.8750    0.3260 hn        1 MOL      0.287465
     77 H33        -9.2050   -1.5450    1.5300 h1        1 MOL      0.234729
     78 H34        -9.2630   -0.5090   -0.0130 h1        1 MOL      0.234729
     79 N8         -6.4710   -0.2900    1.5740 n         1 MOL     -0.380606
     80 C25        -5.4930    0.6990    2.0650 c3        1 MOL      0.006629
     81 C26        -4.8820    1.5310    0.8880 c         1 MOL      0.528241
     82 O14        -4.5070    1.0320   -0.1700 o         1 MOL     -0.521756
     83 C27        -4.4780    0.0250    2.9350 c3        1 MOL      0.402946
     84 C28        -5.0290   -0.5750    4.2460 c3        1 MOL     -0.217183
     85 O15        -3.3430    0.7840    3.4220 oh        1 MOL     -0.709959
     86 H35        -6.1030   -1.1990    1.3430 hn        1 MOL      0.179013
     87 H36        -6.0210    1.4020    2.7000 h1        1 MOL      0.081590
     88 H37        -4.1230   -0.8460    2.3740 h1        1 MOL      0.039487
     89 H38        -2.5810    0.1950    3.4210 ho        1 MOL      0.454035
     90 H39        -4.2550   -1.2410    4.6320 hc        1 MOL      0.036270
     91 H40        -5.5250    0.2050    4.8220 hc        1 MOL      0.036270
     92 H41        -5.8460   -1.2530    3.9700 hc        1 MOL      0.036270
     93 N9         -4.7590    2.8200    1.1180 n         1 MOL     -0.434387
     94 C29        -4.5620    3.9250    0.0670 c3        1 MOL      0.023064
     95 C30        -3.2690    4.7220    0.2030 c         1 MOL      0.458677
     96 O16        -3.1300    5.8920   -0.0960 o         1 MOL     -0.538146
     97 C31        -5.8570    4.8070   -0.0950 c3        1 MOL      0.166273
     98 C32        -6.1550    5.6010    1.1400 c3        1 MOL      0.199157
     99 C33        -7.0050    4.0350   -0.6970 c3        1 MOL     -0.261913
    100 C34        -7.4300    6.4500    0.9950 c3        1 MOL     -0.273064
    101 H42        -4.9600    3.2350    2.0140 hn        1 MOL      0.275743
    102 H43        -4.3310    3.5030   -0.9110 h1        1 MOL      0.091009
    103 H44        -5.5660    5.5300   -0.8650 hc        1 MOL     -0.030429
    104 H45        -5.2750    6.1720    1.4320 hc        1 MOL     -0.042180
    105 H46        -6.3020    4.8660    1.9410 hc        1 MOL     -0.042180
    106 H47        -7.4710    3.4400    0.0910 hc        1 MOL      0.078687
    107 H48        -7.7880    4.6580   -1.1150 hc        1 MOL      0.078687
    108 H49        -6.6610    3.3680   -1.4910 hc        1 MOL      0.078687
    109 H50        -7.3080    7.2290    0.2370 hc        1 MOL      0.059044
    110 H51        -8.2990    5.8290    0.7740 hc        1 MOL      0.059044
    111 H52        -7.6180    6.8460    1.9930 hc        1 MOL      0.059044
    112 N10        -2.2370    4.1040    0.8040 n         1 MOL     -0.275403
    113 C35        -0.9990    4.7440    1.1920 c3        1 MOL     -0.040518
    114 C36         0.1720    3.7720    0.9420 c         1 MOL      0.573603
    115 O17         0.6200    3.1050    1.8360 o         1 MOL     -0.497087
    116 C37        -1.0620    5.1370    2.6440 c3        1 MOL      0.219986
    117 C38        -1.5380    4.1630    3.7730 c3        1 MOL     -0.279959
    118 O18        -1.8920    6.3000    2.8430 oh        1 MOL     -0.582331
    119 H53        -2.3720    3.1920    1.2200 hn        1 MOL      0.176711
    120 H54        -0.7920    5.6270    0.6010 h1        1 MOL      0.088755
    121 H55        -0.1030    5.5770    2.9060 h1        1 MOL      0.031051
    122 H56        -1.6180    6.9240    2.1690 ho        1 MOL      0.378467
    123 H57        -2.6020    4.3340    3.8840 hc        1 MOL      0.090563
    124 H58        -1.3960    3.0950    3.6090 hc        1 MOL      0.090563
    125 H59        -1.0840    4.2900    4.7560 hc        1 MOL      0.090563
    126 N11         0.6140    3.7140   -0.3110 n         1 MOL     -0.647745
    127 C39         1.7180    2.8620   -0.8350 c3        1 MOL     -0.053577
    128 C40         3.0560    3.2250   -0.2310 c         1 MOL      0.558531
    129 O19         3.3030    4.3670    0.2070 o         1 MOL     -0.550051
    130 C41         1.8800    2.9830   -2.3880 c3        1 MOL      0.492601
    131 C42         2.2430    4.3870   -2.9250 c3        1 MOL     -0.548241
    132 O20         0.6200    2.7720   -2.9200 oh        1 MOL     -0.594720
    133 H60         0.1910    4.3510   -0.9650 hn        1 MOL      0.368237
    134 H61         1.5130    1.8230   -0.5910 h1        1 MOL      0.078018
    135 H62         2.6260    2.2620   -2.7060 h1        1 MOL     -0.032409
    136 H63         0.2030    2.0140   -2.5050 ho        1 MOL      0.333234
    137 H64         2.1030    4.4080   -4.0040 hc        1 MOL      0.142875
    138 H65         1.4890    5.0810   -2.5480 hc        1 MOL      0.142875
    139 H66         3.2710    4.7300   -2.7710 hc        1 MOL      0.142875
    140 N12         4.0210    2.2910   -0.2460 n         1 MOL     -0.368827
    141 C43         5.4420    2.4560    0.1520 c3        1 MOL      0.011664
    142 C44         6.0720    1.2890    0.9970 c         1 MOL      0.412563
    143 O21         7.2040    1.3390    1.4590 o         1 MOL     -0.543343
    144 C45         6.2740    2.8480   -1.1070 c3        1 MOL     -0.000071
    145 C46         7.5270    3.7700   -0.6850 c3        1 MOL      0.165322
    146 C47         8.1310    4.2420   -2.0490 c3        1 MOL     -0.023726
    147 C48         9.5090    4.8220   -1.8320 c3        1 MOL      0.133051
    148 N13         9.9240    5.6280   -2.9850 n4        1 MOL     -0.369518
    149 H67         3.6730    1.3730   -0.4490 hn        1 MOL      0.272916
    150 H68         5.4190    3.3370    0.8000 h1        1 MOL      0.079208
    151 H69         5.6350    3.3420   -1.8310 hc        1 MOL     -0.000515
    152 H70         6.7150    1.9470   -1.5280 hc        1 MOL     -0.000515
    153 H71         8.2850    3.1760   -0.1900 hc        1 MOL     -0.034617
    154 H72         7.2020    4.6190   -0.0890 hc        1 MOL     -0.034617
    155 H73         7.4380    5.0270   -2.3600 hc        1 MOL      0.024729
    156 H74         8.1430    3.3740   -2.7110 hc        1 MOL      0.024729
    157 H75        10.2890    4.0870   -1.6460 hx        1 MOL      0.046049
    158 H76         9.4050    5.5030   -0.9770 hx        1 MOL      0.046049
    159 H77        10.6720    6.2520   -2.7180 hn        1 MOL      0.296831
    160 H78        10.2810    5.0030   -3.6890 hn        1 MOL      0.296831
    161 H79         9.1090    6.1420   -3.3160 hn        1 MOL      0.296831
    162 N14         5.2570    0.3270    1.4190 n         1 MOL     -0.264734
    163 C49         5.7470   -0.8770    2.2290 c3        1 MOL     -0.018451
    164 C50         6.9090   -1.6720    1.6210 c         1 MOL      0.672891
    165 O22         6.9150   -2.1790    0.5550 o         1 MOL     -0.477410
    166 C51         4.6200   -1.7990    2.4650 c3        1 MOL     -0.308116
    167 C52         4.9250   -2.8100    3.5050 c3        1 MOL     -0.467215
    168 C53         3.5520   -3.4830    3.8280 c         1 MOL      0.911149
    169 O23         3.3700   -4.6610    3.4880 o         1 MOL     -0.754141
    170 O24         2.6660   -2.7870    4.3540 o         1 MOL     -0.754141
    171 H80         4.2650    0.3640    1.2190 hn        1 MOL      0.199261
    172 H81         5.9900   -0.5340    3.2310 h1        1 MOL      0.048470
    173 H82         4.4240   -2.3800    1.5620 hc        1 MOL      0.208956
    174 H83         3.7860   -1.1630    2.7300 hc        1 MOL      0.208956
    175 H84         5.1770   -2.2700    4.4190 hc        1 MOL      0.110680
    176 H85         5.6440   -3.5950    3.2460 hc        1 MOL      0.110680
    177 N15         7.9850   -1.7520    2.4620 n         1 MOL     -0.454666
    178 C54         9.2240   -2.5080    2.0960 c3        1 MOL     -0.088506
    179 H86         9.7040   -2.0250    1.2440 h1        1 MOL      0.074637
    180 H87         9.9100   -2.5150    2.9430 h1        1 MOL      0.074637
    181 H88         8.9600   -3.5320    1.8310 h1        1 MOL      0.074637
    182 H89         8.0580   -1.0540    3.1840 hn        1 MOL      0.281893
    183 Ca1         0.1430   -2.7060    4.7880 Ca        1 MOL      1.811137
    184 O25        -0.0490   -4.8200    2.9960 oh        1 MOL     -0.890483
    185 H90         0.7160   -4.8520    2.4210 ho        1 MOL      0.434677
    186 H91        -0.6250   -5.5180    2.6860 ho        1 MOL      0.434677
    187 O26         1.2180   -5.2800    5.7300 oh        1 MOL     -0.890483
    188 H92         0.7560   -5.9770    6.2050 ho        1 MOL      0.434677
    189 H93         1.6470   -5.7290    5.0010 ho        1 MOL      0.434677
    190 O27        -1.2350   -0.7510    6.1220 oh        1 MOL     -0.890483
    191 H94        -1.9570   -0.8470    6.7450 ho        1 MOL      0.434677
    192 H95        -1.1150    0.1980    6.0350 ho        1 MOL      0.434677
    193 O28         1.4670   -2.3360    7.0730 oh        1 MOL     -0.890483
    194 H96         1.0800   -1.8990    7.8290 ho        1 MOL      0.434677
    195 H97         2.4050   -2.3720    7.2540 ho        1 MOL      0.434677
@<TRIPOS>BOND
     1    1    2 1   
     2    1    4 1   
     3    1    5 1   
     4    1    6 1   
     5    2    3 2   
     6    2    7 1   
     7    7    8 1   
     8    7   15 1   
     9    8    9 1   
    10    8   11 1   
    11    8   16 1   
    12    9   10 2   
    13    9   19 1   
    14   11   12 1   
    15   11   17 1   
    16   11   18 1   
    17   12   13 1   
    18   12   14 1   
    19   19   20 1   
    20   19   28 1   
    21   20   21 1   
    22   20   23 1   
    23   20   29 1   
    24   21   22 2   
    25   21   41 1   
    26   23   24 1   
    27   23   30 1   
    28   23   31 1   
    29   24   25 1   
    30   24   32 1   
    31   24   33 1   
    32   25   26 1   
    33   25   34 1   
    34   25   35 1   
    35   26   27 1   
    36   26   36 1   
    37   26   37 1   
    38   27   38 1   
    39   27   39 1   
    40   27   40 1   
    41   41   42 1   
    42   41   49 1   
    43   42   43 1   
    44   42   45 1   
    45   42   50 1   
    46   43   44 2   
    47   43   53 1   
    48   45   46 1   
    49   45   51 1   
    50   45   52 1   
    51   46   47 1   
    52   46   48 1   
    53   53   54 1   
    54   53   57 1   
    55   54   55 1   
    56   54   58 1   
    57   54   59 1   
    58   55   56 2   
    59   55   60 1   
    60   60   61 1   
    61   60   68 1   
    62   61   62 1   
    63   61   64 1   
    64   61   69 1   
    65   62   63 2   
    66   62   72 1   
    67   64   65 1   
    68   64   70 1   
    69   64   71 1   
    70   65   66 1   
    71   65   67 1   
    72   72   73 1   
    73   72   76 1   
    74   73   74 1   
    75   73   77 1   
    76   73   78 1   
    77   74   75 2   
    78   74   79 1   
    79   79   80 1   
    80   79   86 1   
    81   80   81 1   
    82   80   83 1   
    83   80   87 1   
    84   81   82 2   
    85   81   93 1   
    86   83   84 1   
    87   83   85 1   
    88   83   88 1   
    89   84   90 1   
    90   84   91 1   
    91   84   92 1   
    92   85   89 1   
    93   93   94 1   
    94   93  101 1   
    95   94   95 1   
    96   94   97 1   
    97   94  102 1   
    98   95   96 2   
    99   95  112 1   
   100   97   98 1   
   101   97   99 1   
   102   97  103 1   
   103   98  100 1   
   104   98  104 1   
   105   98  105 1   
   106   99  106 1   
   107   99  107 1   
   108   99  108 1   
   109  100  109 1   
   110  100  110 1   
   111  100  111 1   
   112  112  113 1   
   113  112  119 1   
   114  113  114 1   
   115  113  116 1   
   116  113  120 1   
   117  114  115 2   
   118  114  126 1   
   119  116  117 1   
   120  116  118 1   
   121  116  121 1   
   122  117  123 1   
   123  117  124 1   
   124  117  125 1   
   125  118  122 1   
   126  126  127 1   
   127  126  133 1   
   128  127  128 1   
   129  127  130 1   
   130  127  134 1   
   131  128  129 2   
   132  128  140 1   
   133  130  131 1   
   134  130  132 1   
   135  130  135 1   
   136  131  137 1   
   137  131  138 1   
   138  131  139 1   
   139  132  136 1   
   140  140  141 1   
   141  140  149 1   
   142  141  142 1   
   143  141  144 1   
   144  141  150 1   
   145  142  143 2   
   146  142  162 1   
   147  144  145 1   
   148  144  151 1   
   149  144  152 1   
   150  145  146 1   
   151  145  153 1   
   152  145  154 1   
   153  146  147 1   
   154  146  155 1   
   155  146  156 1   
   156  147  148 1   
   157  147  157 1   
   158  147  158 1   
   159  148  159 1   
   160  148  160 1   
   161  148  161 1   
   162  162  163 1   
   163  162  171 1   
   164  163  164 1   
   165  163  166 1   
   166  163  172 1   
   167  164  165 2   
   168  164  177 1   
   169  166  167 1   
   170  166  173 1   
   171  166  174 1   
   172  167  168 1   
   173  167  175 1   
   174  167  176 1   
   175  168  169 1   
   176  168  170 1   
   177  177  178 1   
   178  177  182 1   
   179  178  179 1   
   180  178  180 1   
   181  178  181 1   
   182  184  185 1   
   183  184  186 1   
   184  187  188 1   
   185  187  189 1   
   186  190  191 1   
   187  190  192 1   
   188  193  194 1   
   189  193  195 1   
@<TRIPOS>SUBSTRUCTURE
     1 MOL         1 TEMP              0 ****  ****    0 ROOT
