@<TRIPOS>MOLECULE
MOL
  186   183     1     0     0
SMALL
resp


@<TRIPOS>ATOM
      1 C1        -12.2660    4.8760    4.2110 c3        1 MOL     -0.583001
      2 C2        -12.3690    3.8420    3.0950 c         1 MOL      0.980620
      3 O1        -12.9170    2.7230    3.2580 o         1 MOL     -0.637248
      4 H1        -12.8230    4.5280    5.0800 hc        1 MOL      0.144652
      5 H2        -11.2200    5.0150    4.4820 hc        1 MOL      0.144652
      6 H3        -12.6830    5.8230    3.8690 hc        1 MOL      0.144652
      7 N1        -11.8330    4.2450    1.9230 n         1 MOL     -0.756380
      8 C3        -11.8350    3.4980    0.6610 c3        1 MOL     -0.151695
      9 C4        -10.7410    2.3620    0.7830 c         1 MOL      0.613459
     10 O2         -9.6490    2.5080    1.3190 o         1 MOL     -0.673030
     11 C5        -11.5650    4.4530   -0.4520 c3        1 MOL      0.020771
     12 C6        -10.4920    5.5530   -0.0880 c         1 MOL      0.685580
     13 O3         -9.2670    5.3730    0.0130 o         1 MOL     -0.703616
     14 O4        -10.7790    6.7800    0.0540 o         1 MOL     -0.703616
     15 H4        -11.6030    5.2280    1.8560 hn        1 MOL      0.332583
     16 H5        -12.7710    2.9830    0.4470 h1        1 MOL      0.117315
     17 H6        -12.5150    4.9270   -0.6980 hc        1 MOL      0.037119
     18 H7        -11.2320    3.9340   -1.3410 hc        1 MOL      0.037119
     19 N2        -10.9970    1.2550    0.0990 n         1 MOL     -0.117580
     20 C7        -10.2470   -0.0290    0.2430 c3        1 MOL     -0.523915
     21 C8         -8.9320   -0.2640   -0.4410 c         1 MOL      0.737570
     22 O5         -8.2900   -1.3100   -0.0940 o         1 MOL     -0.521004
     23 C9        -11.1680   -1.1650   -0.0180 c3        1 MOL     -0.168486
     24 C10       -11.7420   -1.1380   -1.4360 c3        1 MOL     -0.078139
     25 C11       -12.5920   -2.3380   -1.7200 c3        1 MOL      0.125821
     26 C12       -13.3100   -2.1950   -2.9940 c3        1 MOL     -0.113896
     27 N3        -12.5420   -2.5910   -4.1790 n4        1 MOL     -0.223422
     28 H8        -11.7510    1.2190   -0.5710 hn        1 MOL      0.137301
     29 H9        -10.0340   -0.0190    1.3150 h1        1 MOL      0.311988
     30 H10       -11.9830   -0.9680    0.6690 hc        1 MOL      0.099189
     31 H11       -10.7810   -2.1240    0.3400 hc        1 MOL      0.099189
     32 H12       -10.8690   -1.2950   -2.0610 hc        1 MOL      0.071833
     33 H13       -12.3720   -0.2650   -1.6280 hc        1 MOL      0.071833
     34 H14       -13.3920   -2.3450   -0.9810 hc        1 MOL      0.028548
     35 H15       -11.9660   -3.2260   -1.5950 hc        1 MOL      0.028548
     36 H16       -13.7490   -1.2060   -3.0700 hx        1 MOL      0.095345
     37 H17       -14.0610   -2.9730   -2.8290 hx        1 MOL      0.095345
     38 H18       -11.7490   -2.0170   -4.4500 hn        1 MOL      0.267627
     39 H19       -12.2820   -3.5650   -4.1590 hn        1 MOL      0.267627
     40 H20       -13.0670   -2.4890   -5.0450 hn        1 MOL      0.267627
     41 N4         -8.4510    0.6420   -1.2740 n         1 MOL     -0.474564
     42 C13        -7.0460    0.6820   -1.7570 c3        1 MOL      0.004094
     43 C14        -6.0250    1.0340   -0.6940 c         1 MOL      0.444932
     44 O6         -6.3630    1.6620    0.3170 o         1 MOL     -0.616153
     45 C15        -6.9680    1.5870   -2.9200 c3        1 MOL     -0.170781
     46 C16        -7.4590    3.0360   -2.6630 c         1 MOL      0.554235
     47 O7         -7.4560    3.8540   -3.6670 o         1 MOL     -0.641997
     48 O8         -7.6600    3.4500   -1.4740 o         1 MOL     -0.641997
     49 H21        -9.0580    1.4100   -1.5230 hn        1 MOL      0.275609
     50 H22        -6.7520   -0.3310   -2.0410 h1        1 MOL      0.102337
     51 H23        -7.5500    1.1610   -3.7420 hc        1 MOL      0.086196
     52 H24        -5.9360    1.7420   -3.2530 hc        1 MOL      0.086196
     53 N5         -4.7750    0.6420   -0.7360 n         1 MOL     -0.445150
     54 C17        -4.1570   -0.5420   -1.3560 c3        1 MOL      0.195352
     55 C18        -4.3160   -1.8070   -0.5200 c         1 MOL      0.529542
     56 O9         -4.9780   -1.8390    0.6010 o         1 MOL     -0.489262
     57 H25        -4.1520    1.1790   -0.1490 hn        1 MOL      0.286188
     58 H26        -3.1150   -0.4630   -1.6560 h1        1 MOL      0.030654
     59 H27        -4.6530   -0.6340   -2.3260 h1        1 MOL      0.030654
     60 N6         -3.6740   -2.8770   -1.0040 n         1 MOL     -0.662341
     61 C19        -3.8330   -4.2070   -0.4610 c3        1 MOL      0.294353
     62 C20        -2.6780   -5.0560   -0.8000 c         1 MOL      0.604511
     63 O10        -1.7100   -4.6980   -1.5130 o         1 MOL     -0.539640
     64 C21        -5.1350   -4.8740   -0.8470 c3        1 MOL     -0.285147
     65 C22        -5.3740   -5.0540   -2.3700 c         1 MOL      0.670266
     66 O11        -4.7300   -5.9350   -2.9780 o         1 MOL     -0.661895
     67 O12        -6.1110   -4.2440   -3.0480 o         1 MOL     -0.661895
     68 H28        -3.1920   -2.7600   -1.8780 hn        1 MOL      0.354316
     69 H29        -3.8210   -4.2950    0.6180 h1        1 MOL     -0.011389
     70 H30        -6.0010   -4.3040   -0.5090 hc        1 MOL      0.047136
     71 H31        -5.1560   -5.8440   -0.3560 hc        1 MOL      0.047136
     72 N7         -2.5610   -6.1500   -0.0190 n         1 MOL     -0.394772
     73 C23        -1.4360   -7.1810   -0.1180 c3        1 MOL     -0.311414
     74 C24        -0.0450   -6.7060    0.4560 c         1 MOL      0.584454
     75 O13         0.8290   -7.5350    0.7400 o         1 MOL     -0.546856
     76 H32        -3.2940   -6.4430    0.6180 hn        1 MOL      0.295316
     77 H33        -1.3770   -7.6020   -1.1230 h1        1 MOL      0.156254
     78 H34        -1.7000   -7.9870    0.5590 h1        1 MOL      0.156254
     79 N8          0.0670   -5.3930    0.6610 n         1 MOL     -0.318554
     80 C25         1.1040   -4.7340    1.4650 c3        1 MOL     -0.129308
     81 C26         1.4240   -3.3260    1.0340 c         1 MOL      0.586109
     82 O14         0.5130   -2.5710    0.6540 o         1 MOL     -0.542541
     83 C27         0.7210   -4.7790    2.9710 c3        1 MOL      0.254337
     84 C28        -0.6210   -4.1130    3.3200 c3        1 MOL     -0.227398
     85 O15         0.8060   -6.0590    3.5630 oh        1 MOL     -0.560343
     86 H35        -0.7790   -4.8860    0.4550 hn        1 MOL      0.241044
     87 H36         2.0380   -5.2920    1.4150 h1        1 MOL      0.120822
     88 H37         1.4770   -4.2300    3.5310 h1        1 MOL      0.000078
     89 H38         0.6030   -5.8840    4.4850 ho        1 MOL      0.370327
     90 H39        -1.4330   -4.6610    2.8450 hc        1 MOL      0.055159
     91 H40        -0.7800   -4.0050    4.3900 hc        1 MOL      0.055159
     92 H41        -0.6880   -3.0780    2.9870 hc        1 MOL      0.055159
     93 N9          2.6690   -2.8830    1.0750 n         1 MOL     -0.455809
     94 C29         3.0550   -1.4510    0.8830 c3        1 MOL     -0.038351
     95 C30         4.4780   -1.4750    0.1350 c         1 MOL      0.581655
     96 O16         4.6880   -0.6010   -0.7180 o         1 MOL     -0.535353
     97 C31         3.1250   -0.7280    2.1930 c3        1 MOL      0.097125
     98 C32         2.0090   -1.0900    3.2250 c3        1 MOL      0.060816
     99 C33         3.1620    0.7540    2.0270 c3        1 MOL     -0.163062
    100 C34         2.0260   -0.5200    4.6210 c3        1 MOL     -0.394340
    101 H42         3.3560   -3.6150    1.1650 hn        1 MOL      0.242987
    102 H43         2.2740   -0.9380    0.3210 h1        1 MOL      0.108237
    103 H44         4.0480   -1.1000    2.6230 hc        1 MOL     -0.016050
    104 H45         2.0370   -2.1690    3.3020 hc        1 MOL      0.046331
    105 H46         1.0850   -0.6200    2.9000 hc        1 MOL      0.046331
    106 H47         3.9750    0.9950    1.3480 hc        1 MOL      0.048312
    107 H48         2.2180    1.0560    1.5800 hc        1 MOL      0.048312
    108 H49         3.2950    1.1580    3.0300 hc        1 MOL      0.048312
    109 H50         1.1460   -0.9340    5.1200 hc        1 MOL      0.097952
    110 H51         2.9330   -0.9740    5.0200 hc        1 MOL      0.097952
    111 H52         1.8680    0.5600    4.7010 hc        1 MOL      0.097952
    112 N10         5.3770   -2.3990    0.4700 n         1 MOL     -0.513503
    113 C35         6.5710   -2.5980   -0.3090 c3        1 MOL      0.065887
    114 C36         7.7390   -2.5740    0.7530 c         1 MOL      0.486888
    115 O17         7.6420   -3.0900    1.9040 o         1 MOL     -0.529767
    116 C37         6.3640   -3.9610   -1.1340 c3        1 MOL      0.276476
    117 C38         5.4120   -3.7070   -2.3090 c3        1 MOL     -0.338360
    118 O18         7.5510   -4.3050   -1.7330 oh        1 MOL     -0.618465
    119 H53         5.1750   -3.0350    1.2260 hn        1 MOL      0.282395
    120 H54         6.6640   -1.7710   -1.0190 h1        1 MOL      0.121490
    121 H55         6.0170   -4.7670   -0.4800 h1        1 MOL      0.024235
    122 H56         7.4430   -5.2390   -1.9370 ho        1 MOL      0.403876
    123 H57         4.4580   -3.2590   -2.0300 hc        1 MOL      0.101477
    124 H58         5.9290   -3.0860   -3.0370 hc        1 MOL      0.101477
    125 H59         5.0980   -4.5950   -2.8640 hc        1 MOL      0.101477
    126 N11         8.8860   -2.0870    0.3580 n         1 MOL     -0.428518
    127 C39        10.0510   -1.8810    1.2230 c3        1 MOL      0.114710
    128 C40        10.4120   -0.4250    1.4620 c         1 MOL      0.539659
    129 O19        10.4940   -0.0140    2.6370 o         1 MOL     -0.555757
    130 C41        11.3270   -2.4880    0.5610 c3        1 MOL      0.295012
    131 C42        12.6640   -2.0470    1.1590 c3        1 MOL     -0.344959
    132 O20        11.4310   -2.1480   -0.8130 oh        1 MOL     -0.644352
    133 H60         8.8060   -1.5450   -0.4900 hn        1 MOL      0.302611
    134 H61        10.0190   -2.4110    2.1720 h1        1 MOL      0.077836
    135 H62        11.3130   -3.5760    0.6720 h1        1 MOL      0.026466
    136 H63        12.3710   -2.1280   -1.0080 ho        1 MOL      0.404029
    137 H64        12.6640   -2.1320    2.2460 hc        1 MOL      0.087083
    138 H65        13.4920   -2.6150    0.7210 hc        1 MOL      0.087083
    139 H66        12.7800   -1.0040    0.8920 hc        1 MOL      0.087083
    140 N12        10.5160    0.3400    0.4090 n         1 MOL     -0.446729
    141 C43        10.8470    1.7500    0.4340 c3        1 MOL      0.044308
    142 C44         9.9600    2.4850   -0.6330 c         1 MOL      0.538210
    143 O21         9.8110    1.9690   -1.7220 o         1 MOL     -0.520141
    144 C45        12.3150    2.0490    0.3710 c3        1 MOL     -0.264371
    145 C46        13.0250    1.5020   -0.8700 c3        1 MOL      0.178800
    146 C47        14.4780    1.7920   -1.0050 c3        1 MOL      0.003524
    147 C48        15.1940    1.1350   -2.1400 c3        1 MOL      0.184778
    148 N13        16.5800    1.6110   -2.2010 n4        1 MOL     -0.358989
    149 H67        10.3650   -0.0900   -0.4910 hn        1 MOL      0.265405
    150 H68        10.5440    2.1950    1.3850 h1        1 MOL      0.095057
    151 H69        12.7910    1.7820    1.3070 hc        1 MOL      0.083371
    152 H70        12.4810    3.1190    0.2370 hc        1 MOL      0.083371
    153 H71        12.5220    1.8230   -1.7770 hc        1 MOL     -0.017600
    154 H72        12.8700    0.4240   -0.9290 hc        1 MOL     -0.017600
    155 H73        14.8560    1.3280   -0.0890 hc        1 MOL     -0.004315
    156 H74        14.6260    2.8720   -1.0390 hc        1 MOL     -0.004315
    157 H75        14.7320    1.3930   -3.0910 hx        1 MOL      0.026424
    158 H76        15.2020    0.0480   -2.0500 hx        1 MOL      0.026424
    159 H77        16.6450    2.5810   -2.4770 hn        1 MOL      0.279455
    160 H78        16.9650    1.3740   -1.2970 hn        1 MOL      0.279455
    161 H79        17.1910    1.1420   -2.8540 hn        1 MOL      0.279455
    162 N14         9.4420    3.6520   -0.2780 n         1 MOL     -0.510399
    163 C49         8.4490    4.4300   -1.1120 c3        1 MOL      0.306589
    164 C50         6.9390    4.0020   -0.9020 c         1 MOL      0.336321
    165 O22         6.3070    3.6310   -1.9170 o         1 MOL     -0.518330
    166 C51         8.6740    5.8930   -0.8870 c3        1 MOL     -0.003880
    167 C52         9.9540    6.4580   -1.5210 c3        1 MOL     -0.199774
    168 C53        10.1380    7.9060   -0.9920 c         1 MOL      0.705944
    169 O23        10.4210    8.0120    0.2290 o         1 MOL     -0.667336
    170 O24        10.0450    8.8450   -1.7790 o         1 MOL     -0.667336
    171 H80         9.8240    4.0460    0.5670 hn        1 MOL      0.295147
    172 H81         8.6160    4.3320   -2.1870 h1        1 MOL      0.018598
    173 H82         8.6720    6.0690    0.1850 hc        1 MOL      0.023611
    174 H83         7.8230    6.4130   -1.3190 hc        1 MOL      0.023611
    175 H84         9.9950    6.3990   -2.6060 hc        1 MOL      0.025511
    176 H85        10.8340    5.9180   -1.1560 hc        1 MOL      0.025511
    177 N15         6.3750    3.9080    0.2890 n         1 MOL     -0.300552
    178 C54         6.7240    4.4970    1.6030 c3        1 MOL     -0.068828
    179 H86         5.8100    4.7520    2.1410 h1        1 MOL      0.056748
    180 H87         7.2970    3.7760    2.1850 h1        1 MOL      0.056748
    181 H88         7.3170    5.3980    1.4520 h1        1 MOL      0.056748
    182 H89         5.4550    3.5010    0.1890 hn        1 MOL      0.271828
    183 Ca1        -7.3330    4.0370    0.9880 Ca        1 MOL      1.671807
    184 O25        -7.5700    2.6060    3.3430 oh        1 MOL     -0.659224
    185 H90        -8.1990    2.7360    4.0500 ho        1 MOL      0.352206
    186 H91        -6.7740    3.0530    3.6480 ho        1 MOL      0.352206
@<TRIPOS>BOND
     1    1    2 1   
     2    1    4 1   
     3    1    5 1   
     4    1    6 1   
     5    2    3 2   
     6    2    7 1   
     7    7    8 1   
     8    7   15 1   
     9    8    9 1   
    10    8   11 1   
    11    8   16 1   
    12    9   10 2   
    13    9   19 1   
    14   11   12 1   
    15   11   17 1   
    16   11   18 1   
    17   12   13 1   
    18   12   14 1   
    19   19   20 1   
    20   19   28 1   
    21   20   21 1   
    22   20   23 1   
    23   20   29 1   
    24   21   22 2   
    25   21   41 1   
    26   23   24 1   
    27   23   30 1   
    28   23   31 1   
    29   24   25 1   
    30   24   32 1   
    31   24   33 1   
    32   25   26 1   
    33   25   34 1   
    34   25   35 1   
    35   26   27 1   
    36   26   36 1   
    37   26   37 1   
    38   27   38 1   
    39   27   39 1   
    40   27   40 1   
    41   41   42 1   
    42   41   49 1   
    43   42   43 1   
    44   42   45 1   
    45   42   50 1   
    46   43   44 2   
    47   43   53 1   
    48   45   46 1   
    49   45   51 1   
    50   45   52 1   
    51   46   47 1   
    52   46   48 1   
    53   53   54 1   
    54   53   57 1   
    55   54   55 1   
    56   54   58 1   
    57   54   59 1   
    58   55   56 2   
    59   55   60 1   
    60   60   61 1   
    61   60   68 1   
    62   61   62 1   
    63   61   64 1   
    64   61   69 1   
    65   62   63 2   
    66   62   72 1   
    67   64   65 1   
    68   64   70 1   
    69   64   71 1   
    70   65   66 1   
    71   65   67 1   
    72   72   73 1   
    73   72   76 1   
    74   73   74 1   
    75   73   77 1   
    76   73   78 1   
    77   74   75 2   
    78   74   79 1   
    79   79   80 1   
    80   79   86 1   
    81   80   81 1   
    82   80   83 1   
    83   80   87 1   
    84   81   82 2   
    85   81   93 1   
    86   83   84 1   
    87   83   85 1   
    88   83   88 1   
    89   84   90 1   
    90   84   91 1   
    91   84   92 1   
    92   85   89 1   
    93   93   94 1   
    94   93  101 1   
    95   94   95 1   
    96   94   97 1   
    97   94  102 1   
    98   95   96 2   
    99   95  112 1   
   100   97   98 1   
   101   97   99 1   
   102   97  103 1   
   103   98  100 1   
   104   98  104 1   
   105   98  105 1   
   106   99  106 1   
   107   99  107 1   
   108   99  108 1   
   109  100  109 1   
   110  100  110 1   
   111  100  111 1   
   112  112  113 1   
   113  112  119 1   
   114  113  114 1   
   115  113  116 1   
   116  113  120 1   
   117  114  115 2   
   118  114  126 1   
   119  116  117 1   
   120  116  118 1   
   121  116  121 1   
   122  117  123 1   
   123  117  124 1   
   124  117  125 1   
   125  118  122 1   
   126  126  127 1   
   127  126  133 1   
   128  127  128 1   
   129  127  130 1   
   130  127  134 1   
   131  128  129 2   
   132  128  140 1   
   133  130  131 1   
   134  130  132 1   
   135  130  135 1   
   136  131  137 1   
   137  131  138 1   
   138  131  139 1   
   139  132  136 1   
   140  140  141 1   
   141  140  149 1   
   142  141  142 1   
   143  141  144 1   
   144  141  150 1   
   145  142  143 2   
   146  142  162 1   
   147  144  145 1   
   148  144  151 1   
   149  144  152 1   
   150  145  146 1   
   151  145  153 1   
   152  145  154 1   
   153  146  147 1   
   154  146  155 1   
   155  146  156 1   
   156  147  148 1   
   157  147  157 1   
   158  147  158 1   
   159  148  159 1   
   160  148  160 1   
   161  148  161 1   
   162  162  163 1   
   163  162  171 1   
   164  163  164 1   
   165  163  166 1   
   166  163  172 1   
   167  164  165 2   
   168  164  177 1   
   169  166  167 1   
   170  166  173 1   
   171  166  174 1   
   172  167  168 1   
   173  167  175 1   
   174  167  176 1   
   175  168  169 1   
   176  168  170 1   
   177  177  178 1   
   178  177  182 1   
   179  178  179 1   
   180  178  180 1   
   181  178  181 1   
   182  184  185 1   
   183  184  186 1   
@<TRIPOS>SUBSTRUCTURE
     1 MOL         1 TEMP              0 ****  ****    0 ROOT
