@<TRIPOS>MOLECULE
MOL
  178   175     1     0     0
SMALL
resp


@<TRIPOS>ATOM
      1 C1         -1.2740   -6.6980   -2.4790 c3        1 MOL     -0.422140
      2 C2         -2.6370   -6.4120   -1.8850 c         1 MOL      0.807434
      3 O1         -2.8880   -6.7810   -0.8130 o         1 MOL     -0.591612
      4 H1         -0.8620   -5.7810   -2.9010 hc        1 MOL      0.095094
      5 H2         -0.6080   -7.0700   -1.7000 hc        1 MOL      0.095094
      6 H3         -1.3700   -7.4480   -3.2640 hc        1 MOL      0.095094
      7 N1         -3.5570   -5.6730   -2.5600 n         1 MOL     -0.587926
      8 C3         -4.8900   -5.5090   -2.0130 c3        1 MOL     -0.033304
      9 C4         -4.8930   -4.4410   -0.8860 c         1 MOL      0.629895
     10 O2         -4.5480   -3.3040   -1.1620 o         1 MOL     -0.544669
     11 C5         -5.6930   -4.9500   -3.2070 c3        1 MOL     -0.168647
     12 C6         -7.1480   -4.8410   -2.8390 c         1 MOL      0.712723
     13 O3         -7.7610   -5.9120   -2.6480 o         1 MOL     -0.737847
     14 O4         -7.7190   -3.7170   -2.9130 o         1 MOL     -0.737847
     15 H4         -3.2820   -5.0460   -3.3090 hn        1 MOL      0.286649
     16 H5         -5.2800   -6.5080   -1.7930 h1        1 MOL      0.102720
     17 H6         -5.6310   -5.7340   -3.9620 hc        1 MOL      0.034705
     18 H7         -5.3050   -4.0130   -3.5920 hc        1 MOL      0.034705
     19 N2         -5.3530   -4.7850    0.3310 n         1 MOL     -0.665772
     20 C7         -5.2190   -3.9310    1.4820 c3        1 MOL      0.739338
     21 C8         -3.7630   -3.8980    1.9480 c         1 MOL      0.242938
     22 O5         -2.9830   -4.6960    1.4140 o         1 MOL     -0.473447
     23 C9         -6.2550   -4.4320    2.5460 c3        1 MOL     -0.468193
     24 H8         -5.6150   -5.7550    0.4320 hn        1 MOL      0.313126
     25 H9         -5.4300   -2.8690    1.3270 h1        1 MOL     -0.102649
     26 H10        -6.1660   -5.5010    2.6990 hc        1 MOL      0.105314
     27 H11        -5.9650   -3.9530    3.4890 hc        1 MOL      0.105314
     28 H12        -7.2600   -4.1100    2.2660 hc        1 MOL      0.105314
     29 N3         -3.2960   -2.9680    2.8220 n         1 MOL     -0.290201
     30 C10        -3.9620   -1.7440    3.2920 c3        1 MOL     -0.106062
     31 C11        -3.9330   -0.4780    2.3980 c         1 MOL      0.707430
     32 O6         -2.9460   -0.2250    1.7490 o         1 MOL     -0.601575
     33 C12        -3.4600   -1.2310    4.6410 c3        1 MOL     -0.176647
     34 C13        -1.9320   -1.1280    4.7460 c         1 MOL      0.671506
     35 O7         -1.1390   -1.5850    3.8720 o         1 MOL     -0.661687
     36 O8         -1.4870   -0.5240    5.7160 o         1 MOL     -0.661687
     37 H13        -2.3040   -3.0690    2.9930 hn        1 MOL      0.215217
     38 H14        -5.0060   -1.9400    3.5420 h1        1 MOL      0.046365
     39 H15        -3.7350   -2.0560    5.3040 hc        1 MOL      0.041007
     40 H16        -4.0120   -0.3660    5.0120 hc        1 MOL      0.041007
     41 N4         -5.0150    0.2570    2.4230 n         1 MOL     -0.530826
     42 C14        -5.1640    1.5320    1.7340 c3        1 MOL      0.128762
     43 C15        -6.2140    1.6160    0.6000 c         1 MOL      0.579829
     44 O9         -6.7540    0.6300    0.1870 o         1 MOL     -0.511666
     45 H17        -5.7660    0.0060    3.0450 hn        1 MOL      0.320224
     46 H18        -4.2160    1.9480    1.3860 h1        1 MOL      0.029670
     47 H19        -5.5640    2.2150    2.4810 h1        1 MOL      0.029670
     48 N5         -6.5360    2.7860    0.1020 n         1 MOL     -0.533260
     49 C16        -5.8640    4.0770    0.3320 c3        1 MOL      0.013367
     50 C17        -5.2560    4.5830   -0.9360 c         1 MOL      0.809719
     51 O10        -5.1450    5.7760   -1.1710 o         1 MOL     -0.589074
     52 C18        -6.8610    5.0080    0.9740 c3        1 MOL     -0.302964
     53 C19        -7.2620    4.6160    2.4120 c         1 MOL      0.761650
     54 N6         -6.4330    4.8720    3.3750 n         1 MOL     -0.846976
     55 O11        -8.3180    4.0940    2.6030 o         1 MOL     -0.562327
     56 H20        -7.1960    2.7450   -0.6680 hn        1 MOL      0.313472
     57 H21        -5.0220    3.8390    0.9830 h1        1 MOL      0.047410
     58 H22        -7.7710    5.1000    0.3930 hc        1 MOL      0.079390
     59 H23        -6.4810    6.0190    1.0660 hc        1 MOL      0.079390
     60 H24        -5.6460    5.4730    3.1840 hn        1 MOL      0.377070
     61 H25        -6.7230    4.8170    4.3430 hn        1 MOL      0.377070
     62 N7         -4.9610    3.6730   -1.8330 n         1 MOL     -0.551552
     63 C20        -4.5770    3.9320   -3.2800 c3        1 MOL     -0.093890
     64 C21        -3.1620    4.5450   -3.3960 c         1 MOL      0.542441
     65 O12        -2.7300    4.7700   -4.5240 o         1 MOL     -0.550373
     66 H26        -5.3050    2.7430   -1.6210 hn        1 MOL      0.309172
     67 H27        -5.3150    4.5660   -3.7680 h1        1 MOL      0.124199
     68 H28        -4.3940    3.0620   -3.9130 h1        1 MOL      0.124199
     69 N8         -2.4270    4.8770   -2.2890 n         1 MOL     -0.346873
     70 C22        -1.0300    5.2490   -2.2220 c3        1 MOL      0.049964
     71 C23        -0.0780    4.0600   -2.1560 c         1 MOL      0.592094
     72 O13        -0.4470    2.9530   -1.8410 o         1 MOL     -0.512372
     73 C24        -0.7900    6.1750   -1.0070 c3        1 MOL      0.349103
     74 C25        -1.7880    7.2930   -0.7510 c3        1 MOL     -0.487303
     75 O14        -0.7430    5.4190    0.1610 oh        1 MOL     -0.622511
     76 H29        -2.8560    4.7100   -1.3890 hn        1 MOL      0.199767
     77 H30        -0.7030    5.8530   -3.0710 h1        1 MOL      0.034347
     78 H31         0.2090    6.6000   -1.1200 h1        1 MOL     -0.014497
     79 H32        -0.1220    5.7390    0.8190 ho        1 MOL      0.435753
     80 H33        -2.7080    6.8330   -0.3990 hc        1 MOL      0.121455
     81 H34        -1.3010    7.9820   -0.0600 hc        1 MOL      0.121455
     82 H35        -2.0740    7.8620   -1.6360 hc        1 MOL      0.121455
     83 N9          1.2170    4.3840   -2.3450 n         1 MOL     -0.572728
     84 C26         2.2590    3.4920   -1.9760 c3        1 MOL     -0.015471
     85 C27         2.8250    3.7320   -0.5470 c         1 MOL      0.527950
     86 O15         3.2600    4.8650   -0.1910 o         1 MOL     -0.590955
     87 C28         3.3920    3.6620   -3.0840 c3        1 MOL      0.236370
     88 C29         4.4250    2.5450   -2.8290 c3        1 MOL      0.137609
     89 C30         2.8900    3.6950   -4.4960 c3        1 MOL     -0.384416
     90 C31         5.7380    2.4410   -3.7360 c3        1 MOL     -0.221214
     91 H36         1.5870    5.2510   -2.7030 hn        1 MOL      0.320732
     92 H37         1.9240    2.4560   -1.9690 h1        1 MOL      0.116687
     93 H38         3.8260    4.6200   -2.8060 hc        1 MOL     -0.037819
     94 H39         3.9390    1.5750   -2.8710 hc        1 MOL     -0.035124
     95 H40         4.7960    2.6860   -1.8120 hc        1 MOL     -0.035124
     96 H41         3.6510    3.6150   -5.2680 hc        1 MOL      0.093129
     97 H42         2.2480    2.8190   -4.6150 hc        1 MOL      0.093129
     98 H43         2.4630    4.6710   -4.7370 hc        1 MOL      0.093129
     99 H44         6.3270    3.3560   -3.6600 hc        1 MOL      0.032418
    100 H45         6.2880    1.5430   -3.4800 hc        1 MOL      0.032418
    101 H46         5.4360    2.4030   -4.7810 hc        1 MOL      0.032418
    102 N10         2.8110    2.6920    0.2630 n         1 MOL     -0.304322
    103 C32         3.1160    2.7690    1.6930 c3        1 MOL      0.107188
    104 C33         4.1750    1.8120    2.2000 c         1 MOL      0.400199
    105 O16         4.5730    1.9360    3.3210 o         1 MOL     -0.535803
    106 C34         1.8900    2.7260    2.7110 c3        1 MOL     -0.290635
    107 C35         0.9890    1.4630    2.3940 c         1 MOL      0.956844
    108 O17        -0.1230    1.5030    1.7940 o         1 MOL     -0.845242
    109 O18         1.3290    0.2860    2.7440 o         1 MOL     -0.845242
    110 H47         2.4760    1.7860   -0.0590 hn        1 MOL      0.197149
    111 H48         3.6370    3.7230    1.7680 h1        1 MOL      0.078864
    112 H49         1.2680    3.5990    2.5310 hc        1 MOL      0.074627
    113 H50         2.1230    2.6260    3.7600 hc        1 MOL      0.074627
    114 N11         4.6780    0.9250    1.3520 n         1 MOL     -0.295037
    115 C36         5.7990    0.0440    1.5750 c3        1 MOL      0.489739
    116 C37         5.8060   -1.3450    0.8130 c         1 MOL      0.305218
    117 O19         6.7070   -1.5960   -0.0190 o         1 MOL     -0.522866
    118 C38         7.0310    0.9380    1.4360 c3        1 MOL     -0.304228
    119 C39         8.2800    0.6190    2.2530 ca        1 MOL      0.125913
    120 C40         9.2300   -0.3250    1.8190 ca        1 MOL     -0.142521
    121 C41         8.5330    1.2740    3.4840 ca        1 MOL     -0.142521
    122 C42        10.4510   -0.5570    2.5050 ca        1 MOL     -0.125422
    123 C43         9.6750    1.0890    4.2590 ca        1 MOL     -0.125422
    124 C44        10.7000    0.1910    3.7280 ca        1 MOL     -0.176991
    125 H51         4.4220    0.9620    0.3780 hn        1 MOL      0.167294
    126 H52         5.8460   -0.3490    2.5940 h1        1 MOL     -0.052119
    127 H53         6.7390    1.9730    1.5840 hc        1 MOL      0.074858
    128 H54         7.2360    0.8640    0.3640 hc        1 MOL      0.074858
    129 H55         8.8870   -0.8650    0.9480 ha        1 MOL      0.111503
    130 H56         7.7610    1.9750    3.7620 ha        1 MOL      0.111503
    131 H57        11.2300   -1.1220    2.0070 ha        1 MOL      0.112511
    132 H58         9.7920    1.5780    5.2080 ha        1 MOL      0.112511
    133 H59        11.6080   -0.0070    4.2730 ha        1 MOL      0.111813
    134 N12         4.7360   -2.1570    1.0660 n         1 MOL     -0.121600
    135 C45         4.6340   -3.5500    0.5960 c3        1 MOL     -0.073117
    136 C46         4.7140   -3.5990   -0.9050 c         1 MOL      0.401401
    137 O20         5.1370   -4.5760   -1.4140 o         1 MOL     -0.505524
    138 C47         3.2650   -4.0070    1.2100 c3        1 MOL      0.035598
    139 C48         3.0240   -3.2730    2.4700 c3        1 MOL      0.021671
    140 C49         3.6270   -1.9020    2.0210 c3        1 MOL     -0.208501
    141 H60         5.4350   -4.0890    1.1060 h1        1 MOL      0.076744
    142 H61         2.5890   -3.6640    0.4240 hc        1 MOL      0.021124
    143 H62         3.2090   -5.0880    1.3100 hc        1 MOL      0.021124
    144 H63         1.9850   -3.2300    2.7920 hc        1 MOL      0.021682
    145 H64         3.5880   -3.6600    3.3200 hc        1 MOL      0.021682
    146 H65         2.8540   -1.2940    1.5580 h1        1 MOL      0.156130
    147 H66         3.9640   -1.3970    2.9270 h1        1 MOL      0.156130
    148 N13         4.2920   -2.5070   -1.6010 n         1 MOL     -0.061879
    149 C50         4.2360   -2.4500   -3.0910 c3        1 MOL     -0.329287
    150 C51         5.5790   -2.5290   -3.7520 c         1 MOL      0.551616
    151 O21         5.7840   -3.2340   -4.7160 o         1 MOL     -0.558663
    152 C52         3.4240   -1.2720   -3.6160 c3        1 MOL      0.073570
    153 C53         2.0180   -0.9980   -3.0140 c3        1 MOL     -0.213123
    154 C54         2.0610   -0.7150   -1.4970 c         1 MOL      0.801934
    155 O22         1.1450   -1.1290   -0.6950 o         1 MOL     -0.799243
    156 O23         2.9830   -0.0710   -0.9140 o         1 MOL     -0.799243
    157 H67         4.0750   -1.6980   -1.0370 hn        1 MOL      0.194452
    158 H68         3.6810   -3.2930   -3.4770 h1        1 MOL      0.148618
    159 H69         3.3760   -1.3670   -4.6990 hc        1 MOL      0.014091
    160 H70         3.9700   -0.3340   -3.5100 hc        1 MOL      0.014091
    161 H71         1.4210   -1.8820   -3.2480 hc        1 MOL      0.071426
    162 H72         1.5400   -0.1800   -3.5530 hc        1 MOL      0.071426
    163 N14         6.5370   -1.7740   -3.2350 n         1 MOL     -0.212151
    164 C55         7.9490   -1.7250   -3.5940 c3        1 MOL     -0.142578
    165 H73         8.2050   -0.7190   -3.9270 h1        1 MOL      0.067767
    166 H74         8.5550   -1.9850   -2.7260 h1        1 MOL      0.067767
    167 H75         8.1450   -2.4340   -4.3990 h1        1 MOL      0.067767
    168 H76         6.4140   -1.1990   -2.4170 hn        1 MOL      0.253011
    169 Ca1        -0.4490   -0.9240    1.1800 Ca        1 MOL      1.774232
    170 O24        -2.2750   -1.8610   -0.4320 oh        1 MOL     -0.900770
    171 H77        -2.9760   -2.4640   -0.6730 ho        1 MOL      0.434744
    172 H78        -2.3650   -1.1360   -1.0500 ho        1 MOL      0.434744
    173 O25        -0.3330   -3.5690    1.6650 oh        1 MOL     -0.900770
    174 H79        -1.0660   -3.8480    1.1140 ho        1 MOL      0.434744
    175 H80        -0.3750   -4.1390    2.4290 ho        1 MOL      0.434744
    176 O26        -1.5370    0.6490   -0.8630 oh        1 MOL     -0.900770
    177 H81        -1.1070    1.2030   -1.5130 ho        1 MOL      0.434744
    178 H82        -1.8590    1.2650   -0.1990 ho        1 MOL      0.434744
@<TRIPOS>BOND
     1    1    2 1   
     2    1    4 1   
     3    1    5 1   
     4    1    6 1   
     5    2    3 2   
     6    2    7 1   
     7    7    8 1   
     8    7   15 1   
     9    8    9 1   
    10    8   11 1   
    11    8   16 1   
    12    9   10 2   
    13    9   19 1   
    14   11   12 1   
    15   11   17 1   
    16   11   18 1   
    17   12   13 1   
    18   12   14 1   
    19   19   20 1   
    20   19   24 1   
    21   20   21 1   
    22   20   23 1   
    23   20   25 1   
    24   21   22 2   
    25   21   29 1   
    26   23   26 1   
    27   23   27 1   
    28   23   28 1   
    29   29   30 1   
    30   29   37 1   
    31   30   31 1   
    32   30   33 1   
    33   30   38 1   
    34   31   32 2   
    35   31   41 1   
    36   33   34 1   
    37   33   39 1   
    38   33   40 1   
    39   34   35 1   
    40   34   36 1   
    41   41   42 1   
    42   41   45 1   
    43   42   43 1   
    44   42   46 1   
    45   42   47 1   
    46   43   44 2   
    47   43   48 1   
    48   48   49 1   
    49   48   56 1   
    50   49   50 1   
    51   49   52 1   
    52   49   57 1   
    53   50   51 2   
    54   50   62 1   
    55   52   53 1   
    56   52   58 1   
    57   52   59 1   
    58   53   54 1   
    59   53   55 2   
    60   54   60 1   
    61   54   61 1   
    62   62   63 1   
    63   62   66 1   
    64   63   64 1   
    65   63   67 1   
    66   63   68 1   
    67   64   65 2   
    68   64   69 1   
    69   69   70 1   
    70   69   76 1   
    71   70   71 1   
    72   70   73 1   
    73   70   77 1   
    74   71   72 2   
    75   71   83 1   
    76   73   74 1   
    77   73   75 1   
    78   73   78 1   
    79   74   80 1   
    80   74   81 1   
    81   74   82 1   
    82   75   79 1   
    83   83   84 1   
    84   83   91 1   
    85   84   85 1   
    86   84   87 1   
    87   84   92 1   
    88   85   86 2   
    89   85  102 1   
    90   87   88 1   
    91   87   89 1   
    92   87   93 1   
    93   88   90 1   
    94   88   94 1   
    95   88   95 1   
    96   89   96 1   
    97   89   97 1   
    98   89   98 1   
    99   90   99 1   
   100   90  100 1   
   101   90  101 1   
   102  102  103 1   
   103  102  110 1   
   104  103  104 1   
   105  103  106 1   
   106  103  111 1   
   107  104  105 2   
   108  104  114 1   
   109  106  107 1   
   110  106  112 1   
   111  106  113 1   
   112  107  108 1   
   113  107  109 1   
   114  114  115 1   
   115  114  125 1   
   116  115  116 1   
   117  115  118 1   
   118  115  126 1   
   119  116  117 2   
   120  116  134 1   
   121  118  119 1   
   122  118  127 1   
   123  118  128 1   
   124  119  120 ar  
   125  119  121 ar  
   126  120  122 ar  
   127  120  129 1   
   128  121  123 ar  
   129  121  130 1   
   130  122  124 ar  
   131  122  131 1   
   132  123  124 ar  
   133  123  132 1   
   134  124  133 1   
   135  134  135 1   
   136  134  140 1   
   137  135  136 1   
   138  135  138 1   
   139  135  141 1   
   140  136  137 2   
   141  136  148 1   
   142  138  139 1   
   143  138  142 1   
   144  138  143 1   
   145  139  140 1   
   146  139  144 1   
   147  139  145 1   
   148  140  146 1   
   149  140  147 1   
   150  148  149 1   
   151  148  157 1   
   152  149  150 1   
   153  149  152 1   
   154  149  158 1   
   155  150  151 2   
   156  150  163 1   
   157  152  153 1   
   158  152  159 1   
   159  152  160 1   
   160  153  154 1   
   161  153  161 1   
   162  153  162 1   
   163  154  155 1   
   164  154  156 1   
   165  163  164 1   
   166  163  168 1   
   167  164  165 1   
   168  164  166 1   
   169  164  167 1   
   170  170  171 1   
   171  170  172 1   
   172  173  174 1   
   173  173  175 1   
   174  176  177 1   
   175  176  178 1   
@<TRIPOS>SUBSTRUCTURE
     1 MOL         1 TEMP              0 ****  ****    0 ROOT
