@<TRIPOS>MOLECULE
MOL
  186   183     1     0     0
SMALL
resp


@<TRIPOS>ATOM
      1 C1          5.0140    3.3810   -4.0640 c3        1 MOL     -0.420779
      2 C2          5.6240    2.8800   -2.6520 c         1 MOL      0.777415
      3 O1          4.9380    2.9770   -1.6130 o         1 MOL     -0.666104
      4 H1          4.1380    4.0050   -3.8800 hc        1 MOL      0.098166
      5 H2          5.7650    3.9610   -4.6010 hc        1 MOL      0.098166
      6 H3          4.7240    2.5170   -4.6630 hc        1 MOL      0.098166
      7 N1          6.7800    2.2990   -2.7880 n         1 MOL     -0.711709
      8 C3          7.4340    1.3170   -1.8800 c3        1 MOL      0.311040
      9 C4          6.4380    0.1440   -1.5520 c         1 MOL      0.113667
     10 O2          5.7300    0.1660   -0.5360 o         1 MOL     -0.400254
     11 C5          8.2500    1.9970   -0.7410 c3        1 MOL     -0.177448
     12 C6          7.6480    3.2110    0.0570 c         1 MOL      0.754009
     13 O3          6.5920    3.0180    0.6650 o         1 MOL     -0.732394
     14 O4          8.4460    4.1930    0.2560 o         1 MOL     -0.732394
     15 H4          7.1620    2.4510   -3.7180 hn        1 MOL      0.337148
     16 H5          8.2380    0.7820   -2.3760 h1        1 MOL      0.030721
     17 H6          9.1760    2.3590   -1.2000 hc        1 MOL      0.036184
     18 H7          8.5790    1.2490   -0.0350 hc        1 MOL      0.036184
     19 N2          6.2200   -0.7500   -2.4920 n         1 MOL     -0.245760
     20 C7          5.2480   -1.9320   -2.4170 c3        1 MOL      0.023368
     21 C8          5.6990   -3.0500   -1.4450 c         1 MOL      0.434511
     22 O5          5.7790   -4.1780   -1.8620 o         1 MOL     -0.547400
     23 C9          3.7740   -1.3930   -2.2870 c3        1 MOL      0.004667
     24 C10         2.7000   -2.4650   -2.6340 c3        1 MOL     -0.154839
     25 C11         3.4730   -0.1750   -3.1510 c3        1 MOL     -0.156078
     26 C12         2.5370   -2.8300   -4.1190 c3        1 MOL      0.005653
     27 H8          6.7780   -0.6670   -3.3180 hn        1 MOL      0.240607
     28 H9          5.3180   -2.4130   -3.3960 h1        1 MOL      0.049958
     29 H10         3.5870   -1.0920   -1.2550 hc        1 MOL      0.057741
     30 H11         1.7490   -2.1040   -2.2330 hc        1 MOL      0.074512
     31 H12         3.0250   -3.3870   -2.1510 hc        1 MOL      0.074512
     32 H13         3.8680   -0.2100   -4.1600 hc        1 MOL      0.044510
     33 H14         2.4170    0.0980   -3.0830 hc        1 MOL      0.044510
     34 H15         4.0670    0.6110   -2.6810 hc        1 MOL      0.044510
     35 H16         2.2240   -2.0200   -4.7750 hc        1 MOL     -0.012658
     36 H17         3.4380   -3.3170   -4.5020 hc        1 MOL     -0.012658
     37 H18         1.7890   -3.6010   -4.2770 hc        1 MOL     -0.012658
     38 N3          6.0540   -2.7440   -0.2310 n         1 MOL     -0.263938
     39 C13         6.7720   -3.7350    0.5750 c3        1 MOL      0.126769
     40 C14         5.9580   -4.8450    1.2360 c         1 MOL      0.569964
     41 O6          6.3700   -5.9820    1.2300 o         1 MOL     -0.602701
     42 C15         7.6980   -3.1170    1.5010 c3        1 MOL     -0.125775
     43 C16         8.6460   -2.0960    0.8530 c         1 MOL      0.741394
     44 O7          9.2860   -2.4690   -0.1320 o         1 MOL     -0.732495
     45 O8          8.7550   -0.9360    1.2940 o         1 MOL     -0.732495
     46 H19         5.8510   -1.8510    0.1910 hn        1 MOL      0.376029
     47 H20         7.5300   -4.2160   -0.0250 h1        1 MOL      0.036298
     48 H21         8.2970   -3.9580    1.8440 hc        1 MOL     -0.005892
     49 H22         7.2090   -2.6520    2.3570 hc        1 MOL     -0.005892
     50 N4          4.7350   -4.6480    1.7060 n         1 MOL     -0.515041
     51 C17         3.9550   -3.4100    1.8450 c3        1 MOL      0.026044
     52 C18         4.2240   -2.6680    3.1440 c         1 MOL      0.569290
     53 O9          5.2490   -2.8690    3.7620 o         1 MOL     -0.538429
     54 H23         4.3050   -5.5120    1.9990 hn        1 MOL      0.292585
     55 H24         2.9220   -3.7150    1.7620 h1        1 MOL      0.045675
     56 H25         4.1800   -2.6570    1.0880 h1        1 MOL      0.045675
     57 N5          3.4000   -1.7390    3.6390 n         1 MOL     -0.572936
     58 C19         2.1290   -1.1500    3.0750 c3        1 MOL      0.116401
     59 C20         2.1620   -0.8150    1.6080 c         1 MOL      0.042830
     60 O10         3.2060   -0.4090    1.1120 o         1 MOL     -0.488717
     61 C21         1.7860    0.1100    3.8590 c3        1 MOL     -0.036468
     62 C22         3.0200    0.9990    4.0500 c         1 MOL      0.646109
     63 O11         3.6150    0.9210    5.1090 o         1 MOL     -0.663097
     64 O12         3.3350    1.7260    3.0610 o         1 MOL     -0.663097
     65 H26         3.7310   -1.3820    4.5190 hn        1 MOL      0.338223
     66 H27         1.3700   -1.9190    3.2100 h1        1 MOL      0.055290
     67 H28         1.2360   -0.1200    4.7720 hc        1 MOL      0.023158
     68 H29         1.0800    0.7340    3.3010 hc        1 MOL      0.023158
     69 N6          1.0850   -1.1680    0.8290 n         1 MOL     -0.145310
     70 C23        -0.3150   -1.3690    1.2270 c3        1 MOL      0.030885
     71 C24        -0.8960   -2.5630    0.4990 c         1 MOL      0.653064
     72 O13        -0.2660   -3.0450   -0.4990 o         1 MOL     -0.596296
     73 H30         1.2260   -1.0740   -0.1670 hn        1 MOL      0.219151
     74 H31        -0.8470   -0.5680    0.7160 h1        1 MOL      0.024482
     75 H32        -0.4330   -1.4380    2.3110 h1        1 MOL      0.024482
     76 N7         -2.0970   -3.0400    0.9100 n         1 MOL     -0.530363
     77 C25        -2.6040   -4.2700    0.4050 c3        1 MOL     -0.045430
     78 C26        -3.3300   -4.1430   -0.9670 c         1 MOL      0.352421
     79 O14        -3.6120   -5.1300   -1.6010 o         1 MOL     -0.518260
     80 C27        -3.3540   -4.9210    1.5850 c3        1 MOL      0.058685
     81 C28        -4.6180   -4.2250    2.1440 c3        1 MOL     -0.480419
     82 C29        -5.6980   -4.1550    1.0650 c         1 MOL      0.534666
     83 N8         -6.4270   -5.1590    0.7210 n         1 MOL     -0.565523
     84 O15        -5.8500   -3.1360    0.3870 o         1 MOL     -0.557672
     85 H33        -2.6570   -2.3930    1.4480 hn        1 MOL      0.316051
     86 H34        -1.7260   -4.8830    0.2180 h1        1 MOL      0.163119
     87 H35        -2.6260   -5.1490    2.3640 hc        1 MOL      0.036062
     88 H36        -3.6110   -5.9260    1.2580 hc        1 MOL      0.036062
     89 H37        -4.3830   -3.2020    2.4390 hc        1 MOL      0.166094
     90 H38        -4.9880   -4.8270    2.9750 hc        1 MOL      0.166094
     91 H39        -6.3190   -6.0560    1.1710 hn        1 MOL      0.306750
     92 H40        -7.2150   -4.9460    0.1240 hn        1 MOL      0.306750
     93 N9         -3.5680   -2.9180   -1.4630 n         1 MOL     -0.013697
     94 C30        -4.0370   -2.6110   -2.8530 c3        1 MOL     -0.232628
     95 C31        -5.3270   -1.8130   -3.0520 c         1 MOL      0.330680
     96 O16        -5.7590   -1.5920   -4.1800 o         1 MOL     -0.536855
     97 C32        -2.8870   -1.9220   -3.6060 c3        1 MOL      0.329261
     98 C33        -1.7320   -2.8940   -3.8060 c3        1 MOL     -0.388289
     99 C34        -2.4630   -0.5860   -3.0110 c3        1 MOL     -0.388289
    100 H41        -3.3530   -2.1540   -0.8330 hn        1 MOL      0.129330
    101 H42        -4.2150   -3.5790   -3.3260 h1        1 MOL      0.151136
    102 H43        -3.2010   -1.7080   -4.6240 hc        1 MOL     -0.027275
    103 H44        -1.9450   -3.7250   -4.4730 hc        1 MOL      0.102600
    104 H45        -0.8660   -2.2420   -3.9880 hc        1 MOL      0.102600
    105 H46        -1.5390   -3.3170   -2.8210 hc        1 MOL      0.102600
    106 H47        -1.7890   -0.1200   -3.7250 hc        1 MOL      0.102600
    107 H48        -3.3680   -0.0160   -2.7730 hc        1 MOL      0.102600
    108 H49        -1.8990   -0.8810   -2.1240 hc        1 MOL      0.102600
    109 N10        -6.0020   -1.4800   -1.9550 n         1 MOL      0.020857
    110 C35        -7.2860   -0.7810   -1.9790 c3        1 MOL     -0.057894
    111 C36        -7.3030    0.6610   -1.4670 c         1 MOL      0.407723
    112 O17        -8.2810    1.4030   -1.6910 o         1 MOL     -0.531552
    113 C37        -8.3460   -1.5880   -1.1630 c3        1 MOL     -0.251599
    114 C38        -8.5290   -3.0610   -1.5490 c         1 MOL      0.629237
    115 N11        -8.5650   -3.3330   -2.8500 n         1 MOL     -0.730301
    116 O18        -8.7070   -4.0110   -0.6940 o         1 MOL     -0.573773
    117 H50        -5.6320   -1.7010   -1.0400 hn        1 MOL      0.192411
    118 H51        -7.6400   -0.6100   -2.9980 h1        1 MOL      0.090085
    119 H52        -9.3250   -1.1190   -1.1320 hc        1 MOL      0.069316
    120 H53        -7.9760   -1.5790   -0.1320 hc        1 MOL      0.069316
    121 H54        -8.5350   -2.5310   -3.4700 hn        1 MOL      0.362929
    122 H55        -8.8020   -4.2630   -3.1440 hn        1 MOL      0.362929
    123 N12        -6.2300    1.1810   -0.9150 n         1 MOL     -0.161935
    124 C39        -6.1120    2.5090   -0.2910 c3        1 MOL     -0.003634
    125 C40        -4.6440    2.9860   -0.0450 c         1 MOL      0.435776
    126 O19        -3.6830    2.1470   -0.0590 o         1 MOL     -0.381697
    127 C41        -6.8600    2.4790    1.0700 c3        1 MOL     -0.097120
    128 C42        -6.6660    1.3010    2.0130 ca        1 MOL     -0.054478
    129 C43        -7.5860    0.2290    1.9670 ca        1 MOL     -0.045712
    130 C44        -5.5210    1.2150    2.8270 ca        1 MOL     -0.045712
    131 C45        -7.4730   -0.9430    2.7640 ca        1 MOL     -0.331144
    132 C46        -5.4290    0.0790    3.6140 ca        1 MOL     -0.331144
    133 C47        -6.3010   -0.9860    3.5970 ca        1 MOL      0.408185
    134 O20        -6.1670   -2.1280    4.4420 oh        1 MOL     -0.530708
    135 H56        -5.3610    0.6720   -0.9590 hn        1 MOL      0.084425
    136 H57        -6.6110    3.2120   -0.9590 h1        1 MOL      0.071949
    137 H58        -7.9210    2.5200    0.8270 hc        1 MOL      0.060914
    138 H59        -6.6580    3.3870    1.6420 hc        1 MOL      0.060914
    139 H60        -8.4370    0.2480    1.3070 ha        1 MOL      0.129013
    140 H61        -4.7930    2.0140    2.8820 ha        1 MOL      0.129013
    141 H62        -8.1590   -1.7830    2.7920 ha        1 MOL      0.171446
    142 H63        -4.5140   -0.1700    4.1370 ha        1 MOL      0.171446
    143 H64        -6.8700   -2.7670    4.3060 ho        1 MOL      0.336836
    144 N13        -4.4510    4.2610    0.2700 n         1 MOL     -0.522260
    145 C48        -3.1780    4.9730    0.7130 c3        1 MOL     -0.054097
    146 C49        -1.8310    4.8420   -0.0970 c         1 MOL      0.233054
    147 O21        -1.1100    5.8230   -0.1550 o         1 MOL     -0.481379
    148 C50        -2.9180    4.7910    2.2350 c3        1 MOL      0.111533
    149 C51        -4.1740    5.2210    3.0620 c3        1 MOL     -0.174277
    150 C52        -3.9920    4.9780    4.6060 c         1 MOL      0.612175
    151 O22        -3.7730    3.8420    5.0780 o         1 MOL     -0.682036
    152 O23        -4.1150    5.9250    5.4130 o         1 MOL     -0.682036
    153 H65        -5.2870    4.8090    0.3540 hn        1 MOL      0.311133
    154 H66        -3.4650    6.0140    0.5760 h1        1 MOL      0.108939
    155 H67        -2.1250    5.4810    2.5350 hc        1 MOL      0.043552
    156 H68        -2.6960    3.7330    2.3700 hc        1 MOL      0.043552
    157 H69        -5.0330    4.6150    2.7610 hc        1 MOL      0.009011
    158 H70        -4.3830    6.2790    2.9090 hc        1 MOL      0.009011
    159 N14        -1.6450    3.8270   -0.9420 n         1 MOL      0.095738
    160 C53        -0.6070    3.8120   -1.9440 c3        1 MOL     -0.086307
    161 C54        -0.8120    4.8380   -3.0380 c         1 MOL      0.440169
    162 O24         0.1500    5.4610   -3.5030 o         1 MOL     -0.518024
    163 C55        -0.5320    2.3910   -2.5360 c3        1 MOL     -0.107641
    164 C56        -0.2420    1.3700   -1.3770 c3        1 MOL      0.148580
    165 C57         0.8800    1.7620   -0.4940 c         1 MOL      0.657062
    166 O25         0.6990    2.1350    0.6690 o         1 MOL     -0.681858
    167 O26         2.0840    1.7310   -0.8790 o         1 MOL     -0.681858
    168 H71        -2.3240    3.0770   -0.9030 hn        1 MOL      0.075818
    169 H72         0.3740    3.9390   -1.4710 h1        1 MOL      0.137290
    170 H73         0.3720    2.3980   -3.1500 hc        1 MOL      0.023189
    171 H74        -1.4100    1.9930   -3.0420 hc        1 MOL      0.023189
    172 H75         0.1160    0.4780   -1.8740 hc        1 MOL     -0.064801
    173 H76        -1.1180    1.0850   -0.7990 hc        1 MOL     -0.064801
    174 N15        -2.0770    5.0820   -3.4260 n         1 MOL     -0.230276
    175 C58        -2.6070    5.7740   -4.5490 c3        1 MOL     -0.130984
    176 H77        -3.5260    6.2830   -4.2620 h1        1 MOL      0.065425
    177 H78        -1.8810    6.5070   -4.9010 h1        1 MOL      0.065425
    178 H79        -2.8210    5.0620   -5.3460 h1        1 MOL      0.065425
    179 H80        -2.7520    4.5060   -2.9490 hn        1 MOL      0.191828
    180 Ca1         4.1800    1.9210    0.7650 Ca        1 MOL      1.773913
    181 O27         3.9240    4.5380    0.7040 oh        1 MOL     -0.936833
    182 H81         4.3260    4.9410   -0.0710 ho        1 MOL      0.448935
    183 H82         3.5050    5.2620    1.1630 ho        1 MOL      0.448935
    184 O28         6.0680    0.5470    2.3460 oh        1 MOL     -0.936833
    185 H83         6.0310    0.1230    3.2110 ho        1 MOL      0.448935
    186 H84         6.8830    0.2310    1.9570 ho        1 MOL      0.448935
@<TRIPOS>BOND
     1    1    2 1   
     2    1    4 1   
     3    1    5 1   
     4    1    6 1   
     5    2    3 2   
     6    2    7 1   
     7    7    8 1   
     8    7   15 1   
     9    8    9 1   
    10    8   11 1   
    11    8   16 1   
    12    9   10 2   
    13    9   19 1   
    14   11   12 1   
    15   11   17 1   
    16   11   18 1   
    17   12   13 1   
    18   12   14 1   
    19   19   20 1   
    20   19   27 1   
    21   20   21 1   
    22   20   23 1   
    23   20   28 1   
    24   21   22 2   
    25   21   38 1   
    26   23   24 1   
    27   23   25 1   
    28   23   29 1   
    29   24   26 1   
    30   24   30 1   
    31   24   31 1   
    32   25   32 1   
    33   25   33 1   
    34   25   34 1   
    35   26   35 1   
    36   26   36 1   
    37   26   37 1   
    38   38   39 1   
    39   38   46 1   
    40   39   40 1   
    41   39   42 1   
    42   39   47 1   
    43   40   41 2   
    44   40   50 1   
    45   42   43 1   
    46   42   48 1   
    47   42   49 1   
    48   43   44 1   
    49   43   45 1   
    50   50   51 1   
    51   50   54 1   
    52   51   52 1   
    53   51   55 1   
    54   51   56 1   
    55   52   53 2   
    56   52   57 1   
    57   57   58 1   
    58   57   65 1   
    59   58   59 1   
    60   58   61 1   
    61   58   66 1   
    62   59   60 2   
    63   59   69 1   
    64   61   62 1   
    65   61   67 1   
    66   61   68 1   
    67   62   63 1   
    68   62   64 1   
    69   69   70 1   
    70   69   73 1   
    71   70   71 1   
    72   70   74 1   
    73   70   75 1   
    74   71   72 2   
    75   71   76 1   
    76   76   77 1   
    77   76   85 1   
    78   77   78 1   
    79   77   80 1   
    80   77   86 1   
    81   78   79 2   
    82   78   93 1   
    83   80   81 1   
    84   80   87 1   
    85   80   88 1   
    86   81   82 1   
    87   81   89 1   
    88   81   90 1   
    89   82   83 1   
    90   82   84 2   
    91   83   91 1   
    92   83   92 1   
    93   93   94 1   
    94   93  100 1   
    95   94   95 1   
    96   94   97 1   
    97   94  101 1   
    98   95   96 2   
    99   95  109 1   
   100   97   98 1   
   101   97   99 1   
   102   97  102 1   
   103   98  103 1   
   104   98  104 1   
   105   98  105 1   
   106   99  106 1   
   107   99  107 1   
   108   99  108 1   
   109  109  110 1   
   110  109  117 1   
   111  110  111 1   
   112  110  113 1   
   113  110  118 1   
   114  111  112 2   
   115  111  123 1   
   116  113  114 1   
   117  113  119 1   
   118  113  120 1   
   119  114  115 1   
   120  114  116 2   
   121  115  121 1   
   122  115  122 1   
   123  123  124 1   
   124  123  135 1   
   125  124  125 1   
   126  124  127 1   
   127  124  136 1   
   128  125  126 2   
   129  125  144 1   
   130  127  128 1   
   131  127  137 1   
   132  127  138 1   
   133  128  129 ar  
   134  128  130 ar  
   135  129  131 ar  
   136  129  139 1   
   137  130  132 ar  
   138  130  140 1   
   139  131  133 ar  
   140  131  141 1   
   141  132  133 ar  
   142  132  142 1   
   143  133  134 1   
   144  134  143 1   
   145  144  145 1   
   146  144  153 1   
   147  145  146 1   
   148  145  148 1   
   149  145  154 1   
   150  146  147 2   
   151  146  159 1   
   152  148  149 1   
   153  148  155 1   
   154  148  156 1   
   155  149  150 1   
   156  149  157 1   
   157  149  158 1   
   158  150  151 1   
   159  150  152 1   
   160  159  160 1   
   161  159  168 1   
   162  160  161 1   
   163  160  163 1   
   164  160  169 1   
   165  161  162 2   
   166  161  174 1   
   167  163  164 1   
   168  163  170 1   
   169  163  171 1   
   170  164  165 1   
   171  164  172 1   
   172  164  173 1   
   173  165  166 1   
   174  165  167 1   
   175  174  175 1   
   176  174  179 1   
   177  175  176 1   
   178  175  177 1   
   179  175  178 1   
   180  181  182 1   
   181  181  183 1   
   182  184  185 1   
   183  184  186 1   
@<TRIPOS>SUBSTRUCTURE
     1 MOL         1 TEMP              0 ****  ****    0 ROOT
