@<TRIPOS>MOLECULE
MOL
  189   185     1     0     0
SMALL
resp


@<TRIPOS>ATOM
      1 C1          4.1190    4.5390   -2.9070 c3        1 MOL     -0.473663
      2 C2          4.9790    3.6160   -2.1400 c         1 MOL      0.891688
      3 O1          4.5830    3.1670   -1.0230 o         1 MOL     -0.675014
      4 H1          3.2090    4.7400   -2.3430 hc        1 MOL      0.127182
      5 H2          4.6530    5.4750   -3.0800 hc        1 MOL      0.127182
      6 H3          3.8610    4.0860   -3.8640 hc        1 MOL      0.127182
      7 N1          6.1660    3.1770   -2.6870 n         1 MOL     -0.666875
      8 C3          7.0300    2.0830   -2.2160 c3        1 MOL      0.417822
      9 C4          6.1870    0.8520   -1.9020 c         1 MOL      0.198877
     10 O2          5.9290    0.6730   -0.7050 o         1 MOL     -0.564088
     11 C5          8.1660    2.5650   -1.2280 c3        1 MOL     -0.121384
     12 C6          7.7140    3.4110   -0.0930 c         1 MOL      0.593667
     13 O3          6.8400    3.0310    0.7140 o         1 MOL     -0.687193
     14 O4          8.1150    4.6290   -0.0080 o         1 MOL     -0.687193
     15 H4          6.3440    3.5140   -3.6270 hn        1 MOL      0.278946
     16 H5          7.6610    1.6840   -3.0120 h1        1 MOL     -0.036211
     17 H6          8.8390    3.1930   -1.8090 hc        1 MOL      0.016229
     18 H7          8.7930    1.7380   -0.9000 hc        1 MOL      0.016229
     19 N2          5.7380    0.1480   -2.9400 n         1 MOL     -0.376956
     20 C7          4.8770   -1.0910   -3.0010 c3        1 MOL      0.110809
     21 C8          5.5830   -2.3160   -2.3340 c         1 MOL      0.385138
     22 O5          5.6930   -3.3780   -2.9570 o         1 MOL     -0.557784
     23 C9          3.4300   -1.0240   -2.4730 c3        1 MOL      0.190075
     24 C10         2.3670   -2.0440   -2.9750 c3        1 MOL     -0.054238
     25 C11         2.8560    0.3670   -2.9280 c3        1 MOL     -0.035766
     26 C12         2.3410   -2.2680   -4.4970 c3        1 MOL     -0.285423
     27 H8          6.1890    0.3940   -3.8140 hn        1 MOL      0.282218
     28 H9          4.8220   -1.3540   -4.0530 h1        1 MOL      0.023877
     29 H10         3.3270   -1.1770   -1.3920 hc        1 MOL     -0.030324
     30 H11         1.3430   -1.7810   -2.7100 hc        1 MOL      0.076800
     31 H12         2.6670   -3.0140   -2.5680 hc        1 MOL      0.076800
     32 H13         3.2210    1.0510   -2.1540 hc        1 MOL     -0.026467
     33 H14         3.3760    0.6960   -3.8240 hc        1 MOL     -0.026467
     34 H15         1.7820    0.5570   -2.9390 hc        1 MOL     -0.026467
     35 H16         3.2420   -2.7020   -4.9150 hc        1 MOL      0.056955
     36 H17         1.6890   -3.1270   -4.6620 hc        1 MOL      0.056955
     37 H18         1.9280   -1.4260   -5.0540 hc        1 MOL      0.056955
     38 N3          6.1500   -2.2470   -1.1150 n         1 MOL     -0.228740
     39 C13         7.0560   -3.2620   -0.4890 c3        1 MOL      0.027594
     40 C14         6.3740   -4.5750   -0.0680 c         1 MOL      0.519379
     41 O6          7.0170   -5.6020   -0.1640 o         1 MOL     -0.518727
     42 C15         7.8160   -2.5570    0.6190 c3        1 MOL     -0.350370
     43 C16         8.8620   -3.5470    1.1740 c         1 MOL      0.729477
     44 O7          8.6930   -4.0090    2.3230 o         1 MOL     -0.723373
     45 O8          9.8070   -3.8790    0.4350 o         1 MOL     -0.723373
     46 H19         6.0590   -1.3680   -0.6290 hn        1 MOL      0.302729
     47 H20         7.8540   -3.4980   -1.2020 h1        1 MOL      0.063060
     48 H21         7.1660   -2.2380    1.4300 hc        1 MOL      0.080256
     49 H22         8.3810   -1.6550    0.3850 hc        1 MOL      0.080256
     50 N4          5.1760   -4.5750    0.4710 n         1 MOL     -0.414358
     51 C17         4.1590   -3.4910    0.6880 c3        1 MOL      0.125222
     52 C18         3.1280   -4.0100    1.6790 c         1 MOL      0.536843
     53 O9          2.8970   -5.1590    1.7460 o         1 MOL     -0.579444
     54 H23         4.7480   -5.4780    0.3350 hn        1 MOL      0.251847
     55 H24         3.7960   -3.1750   -0.2860 h1        1 MOL      0.005754
     56 H25         4.5350   -2.5250    1.0130 h1        1 MOL      0.005754
     57 N5          2.5140   -3.2510    2.5250 n         1 MOL     -0.374970
     58 C19         2.4840   -1.7280    2.7180 c3        1 MOL      0.079035
     59 C20         2.3320   -0.8420    1.4900 c         1 MOL      0.036721
     60 O10         3.3070   -0.3860    0.8790 o         1 MOL     -0.331521
     61 C21         3.7200   -1.3610    3.6040 c3        1 MOL     -0.256529
     62 C22         3.6870    0.1170    4.1410 c         1 MOL      0.800884
     63 O11         3.9140    0.2580    5.3740 o         1 MOL     -0.716391
     64 O12         3.3900    1.0170    3.3260 o         1 MOL     -0.716391
     65 H26         1.9920   -3.7500    3.2380 hn        1 MOL      0.258469
     66 H27         1.5880   -1.6120    3.3220 h1        1 MOL      0.114231
     67 H28         4.6150   -1.6420    3.0530 hc        1 MOL      0.059029
     68 H29         3.6820   -2.0450    4.4490 hc        1 MOL      0.059029
     69 N6          1.1080   -0.5380    1.0580 n         1 MOL     -0.056264
     70 C23        -0.2280   -1.1190    1.3790 c3        1 MOL     -0.014174
     71 C24        -0.7060   -2.3360    0.5110 c         1 MOL      0.453031
     72 O13         0.0270   -2.7440   -0.3960 o         1 MOL     -0.529866
     73 H30         1.1730    0.0540    0.2390 hn        1 MOL      0.185686
     74 H31        -1.0120   -0.3600    1.3040 h1        1 MOL      0.028781
     75 H32        -0.2220   -1.4780    2.4080 h1        1 MOL      0.028781
     76 N7         -1.9450   -2.7670    0.6890 n         1 MOL     -0.276255
     77 C25        -2.6280   -3.8540   -0.0580 c3        1 MOL     -0.138012
     78 C26        -2.9700   -3.6170   -1.5550 c         1 MOL      0.375199
     79 O14        -3.1010   -4.6230   -2.3040 o         1 MOL     -0.488095
     80 C27        -3.8530   -4.3020    0.6470 c3        1 MOL     -0.067665
     81 C28        -3.6580   -4.9760    1.9850 c3        1 MOL     -0.019627
     82 C29        -3.2730   -6.4240    1.7910 c         1 MOL      0.632204
     83 N8         -3.1380   -6.9940    2.9680 n         1 MOL     -0.762341
     84 O15        -3.0880   -6.9710    0.7260 o         1 MOL     -0.528776
     85 H33        -2.4690   -2.3910    1.4650 hn        1 MOL      0.241161
     86 H34        -1.8900   -4.6590   -0.0930 h1        1 MOL      0.190257
     87 H35        -4.4110   -4.9540   -0.0290 hc        1 MOL      0.051327
     88 H36        -4.5610   -3.4660    0.6610 hc        1 MOL      0.051327
     89 H37        -4.5700   -4.9590    2.5900 hc        1 MOL      0.002314
     90 H38        -2.8990   -4.3840    2.4880 hc        1 MOL      0.002314
     91 H39        -3.3940   -6.5240    3.8220 hn        1 MOL      0.346798
     92 H40        -2.9910   -7.9970    2.9580 hn        1 MOL      0.346798
     93 N9         -3.1960   -2.3450   -1.9800 n         1 MOL     -0.108466
     94 C30        -3.6980   -2.0550   -3.3310 c3        1 MOL     -0.218666
     95 C31        -5.1060   -1.3850   -3.3320 c         1 MOL      0.525477
     96 O16        -5.6850   -1.1110   -4.3660 o         1 MOL     -0.533962
     97 C32        -2.7020   -1.1560   -4.0780 c3        1 MOL      0.298818
     98 C33        -1.5490   -2.0380   -4.5090 c3        1 MOL     -0.353281
     99 C34        -2.1190    0.0080   -3.3760 c3        1 MOL     -0.353281
    100 H41        -3.0510   -1.5930   -1.3140 hn        1 MOL      0.124097
    101 H42        -3.7910   -3.0060   -3.8460 h1        1 MOL      0.153775
    102 H43        -3.2190   -0.8650   -4.9980 hc        1 MOL     -0.018604
    103 H44        -0.8690   -1.4710   -5.1490 hc        1 MOL      0.090579
    104 H45        -1.0520   -2.3340   -3.5860 hc        1 MOL      0.090579
    105 H46        -1.9410   -2.9160   -5.0150 hc        1 MOL      0.090579
    106 H47        -2.8230    0.7630   -3.0360 hc        1 MOL      0.090579
    107 H48        -1.5800   -0.2550   -2.4670 hc        1 MOL      0.090579
    108 H49        -1.3580    0.4780   -4.0010 hc        1 MOL      0.090579
    109 N10        -5.7060   -1.2660   -2.1650 n         1 MOL     -0.455460
    110 C35        -7.0810   -0.8310   -2.0760 c3        1 MOL      0.113053
    111 C36        -7.2830    0.5150   -1.3540 c         1 MOL      0.573464
    112 O17        -8.2680    1.2260   -1.6250 o         1 MOL     -0.575019
    113 C37        -7.9660   -1.8950   -1.3680 c3        1 MOL     -0.254147
    114 C38        -7.9160   -3.1340   -2.0110 c         1 MOL      0.676662
    115 N11        -8.1840   -3.1850   -3.2890 n         1 MOL     -0.739367
    116 O18        -7.6750   -4.1800   -1.3480 o         1 MOL     -0.595191
    117 H50        -5.2090   -1.5770   -1.3460 hn        1 MOL      0.305265
    118 H51        -7.4530   -0.6160   -3.0810 h1        1 MOL      0.072402
    119 H52        -9.0130   -1.6520   -1.5400 hc        1 MOL      0.068307
    120 H53        -7.6560   -2.0150   -0.3320 hc        1 MOL      0.068307
    121 H54        -8.2580   -2.3800   -3.8870 hn        1 MOL      0.350655
    122 H55        -8.3140   -4.1150   -3.6620 hn        1 MOL      0.350655
    123 N12        -6.3370    0.8990   -0.4980 n         1 MOL     -0.549002
    124 C39        -6.3420    2.1090    0.3380 c3        1 MOL      0.413193
    125 C40        -5.0210    2.8590    0.3060 c         1 MOL      0.415259
    126 O19        -3.9800    2.3410   -0.0940 o         1 MOL     -0.559990
    127 C41        -6.7790    1.8030    1.8050 c3        1 MOL     -0.075118
    128 C42        -7.8990    0.8640    1.9560 ca        1 MOL      0.006596
    129 C43        -7.6250   -0.4450    2.4300 ca        1 MOL     -0.128554
    130 C44        -9.2120    1.3340    1.7220 ca        1 MOL     -0.128554
    131 C45        -8.7390   -1.2970    2.5590 ca        1 MOL     -0.224531
    132 C46       -10.3000    0.4500    1.9040 ca        1 MOL     -0.224531
    133 C47       -10.0710   -0.8500    2.3770 ca        1 MOL      0.291416
    134 O20       -11.1380   -1.6340    2.7500 oh        1 MOL     -0.511275
    135 H56        -5.6640    0.1710   -0.3300 hn        1 MOL      0.271358
    136 H57        -7.0140    2.8410   -0.1160 h1        1 MOL     -0.024796
    137 H58        -7.0500    2.7160    2.3360 hc        1 MOL      0.035487
    138 H59        -5.9180    1.3860    2.3360 hc        1 MOL      0.035487
    139 H60        -6.5800   -0.7100    2.4680 ha        1 MOL      0.122511
    140 H61        -9.4250    2.3640    1.4600 ha        1 MOL      0.122511
    141 H62        -8.6040   -2.3540    2.7390 ha        1 MOL      0.133003
    142 H63       -11.3020    0.7890    1.7150 ha        1 MOL      0.133003
    143 H64       -10.8970   -2.5620    2.7340 ho        1 MOL      0.369409
    144 N13        -4.9650    4.0450    0.8540 n         1 MOL     -0.520366
    145 C48        -3.9100    4.8450    1.5550 c3        1 MOL      0.094182
    146 C49        -2.6480    5.2060    0.7320 c         1 MOL      0.393285
    147 O21        -2.1490    6.3210    1.0230 o         1 MOL     -0.518834
    148 C50        -3.5230    4.2110    2.9270 c3        1 MOL     -0.040046
    149 C51        -2.6600    2.9670    3.0340 c3        1 MOL     -0.123517
    150 C52        -2.4220    2.5700    4.4580 c         1 MOL      0.690689
    151 O22        -2.7210    1.4010    4.7490 o         1 MOL     -0.722028
    152 O23        -1.9480    3.3440    5.3570 o         1 MOL     -0.722028
    153 H65        -5.8460    4.5300    0.9880 hn        1 MOL      0.279446
    154 H66        -4.4520    5.7600    1.7850 h1        1 MOL      0.050031
    155 H67        -4.4820    3.9140    3.3500 hc        1 MOL      0.019005
    156 H68        -3.0220    4.9900    3.5050 hc        1 MOL      0.019005
    157 H69        -1.6720    3.0660    2.5930 hc        1 MOL      0.033191
    158 H70        -3.1390    2.1580    2.4790 hc        1 MOL      0.033191
    159 N14        -2.1800    4.4720   -0.3010 n         1 MOL     -0.305219
    160 C53        -0.9410    4.7640   -1.0480 c3        1 MOL     -0.088599
    161 C54        -1.2140    5.6890   -2.2510 c         1 MOL      0.393700
    162 O24        -0.2400    6.2600   -2.7970 o         1 MOL     -0.529493
    163 C55        -0.4410    3.3770   -1.6520 c3        1 MOL      0.210672
    164 C56        -0.2030    2.3920   -0.5210 c3        1 MOL      0.108738
    165 C57         0.8870    2.7370    0.4790 c         1 MOL      0.574578
    166 O25         0.6890    3.4670    1.4150 o         1 MOL     -0.625785
    167 O26         2.0680    2.2610    0.4180 o         1 MOL     -0.625785
    168 H71        -2.5460    3.5490   -0.4800 hn        1 MOL      0.340906
    169 H72        -0.1700    5.2150   -0.4200 h1        1 MOL      0.185091
    170 H73         0.4600    3.6380   -2.1920 hc        1 MOL     -0.084221
    171 H74        -1.2770    3.0230   -2.2670 hc        1 MOL     -0.084221
    172 H75        -0.0790    1.3850   -0.9360 hc        1 MOL     -0.043022
    173 H76        -1.1640    2.1690   -0.0480 hc        1 MOL     -0.043022
    174 N15        -2.4920    5.8510   -2.5880 n         1 MOL     -0.167354
    175 C58        -2.9260    6.8590   -3.5090 c3        1 MOL     -0.273817
    176 H77        -3.1990    7.7600   -2.9600 h1        1 MOL      0.104014
    177 H78        -2.1180    7.0890   -4.2050 h1        1 MOL      0.104014
    178 H79        -3.7920    6.4980   -4.0640 h1        1 MOL      0.104014
    179 H80        -3.1630    5.2970   -2.0800 hn        1 MOL      0.181713
    180 Ca1         4.5210    2.0960    1.2510 Ca        1 MOL      1.776734
    181 O27         5.5760    3.0340    3.5820 oh        1 MOL     -0.861956
    182 H81         5.6220    2.6460    4.4580 ho        1 MOL      0.404803
    183 H82         6.4750    3.3390    3.4150 ho        1 MOL      0.404803
    184 O28         6.2660    0.1720    1.9970 oh        1 MOL     -0.861956
    185 H83         7.0930    0.2870    2.4630 ho        1 MOL      0.404803
    186 H84         6.5240    0.0240    1.0890 ho        1 MOL      0.404803
    187 O29         3.1390    4.2820    1.9750 oh        1 MOL     -0.861956
    188 H85         3.3490    4.8610    2.7120 ho        1 MOL      0.404803
    189 H86         2.2260    4.0180    2.1180 ho        1 MOL      0.404803
@<TRIPOS>BOND
     1    1    2 1   
     2    1    4 1   
     3    1    5 1   
     4    1    6 1   
     5    2    3 2   
     6    2    7 1   
     7    7    8 1   
     8    7   15 1   
     9    8    9 1   
    10    8   11 1   
    11    8   16 1   
    12    9   10 2   
    13    9   19 1   
    14   11   12 1   
    15   11   17 1   
    16   11   18 1   
    17   12   13 1   
    18   12   14 1   
    19   19   20 1   
    20   19   27 1   
    21   20   21 1   
    22   20   23 1   
    23   20   28 1   
    24   21   22 2   
    25   21   38 1   
    26   23   24 1   
    27   23   25 1   
    28   23   29 1   
    29   24   26 1   
    30   24   30 1   
    31   24   31 1   
    32   25   32 1   
    33   25   33 1   
    34   25   34 1   
    35   26   35 1   
    36   26   36 1   
    37   26   37 1   
    38   38   39 1   
    39   38   46 1   
    40   39   40 1   
    41   39   42 1   
    42   39   47 1   
    43   40   41 2   
    44   40   50 1   
    45   42   43 1   
    46   42   48 1   
    47   42   49 1   
    48   43   44 1   
    49   43   45 1   
    50   50   51 1   
    51   50   54 1   
    52   51   52 1   
    53   51   55 1   
    54   51   56 1   
    55   52   53 2   
    56   52   57 1   
    57   57   58 1   
    58   57   65 1   
    59   58   59 1   
    60   58   61 1   
    61   58   66 1   
    62   59   60 2   
    63   59   69 1   
    64   61   62 1   
    65   61   67 1   
    66   61   68 1   
    67   62   63 1   
    68   62   64 1   
    69   69   70 1   
    70   69   73 1   
    71   70   71 1   
    72   70   74 1   
    73   70   75 1   
    74   71   72 2   
    75   71   76 1   
    76   76   77 1   
    77   76   85 1   
    78   77   78 1   
    79   77   80 1   
    80   77   86 1   
    81   78   79 2   
    82   78   93 1   
    83   80   81 1   
    84   80   87 1   
    85   80   88 1   
    86   81   82 1   
    87   81   89 1   
    88   81   90 1   
    89   82   83 1   
    90   82   84 2   
    91   83   91 1   
    92   83   92 1   
    93   93   94 1   
    94   93  100 1   
    95   94   95 1   
    96   94   97 1   
    97   94  101 1   
    98   95   96 2   
    99   95  109 1   
   100   97   98 1   
   101   97   99 1   
   102   97  102 1   
   103   98  103 1   
   104   98  104 1   
   105   98  105 1   
   106   99  106 1   
   107   99  107 1   
   108   99  108 1   
   109  109  110 1   
   110  109  117 1   
   111  110  111 1   
   112  110  113 1   
   113  110  118 1   
   114  111  112 2   
   115  111  123 1   
   116  113  114 1   
   117  113  119 1   
   118  113  120 1   
   119  114  115 1   
   120  114  116 2   
   121  115  121 1   
   122  115  122 1   
   123  123  124 1   
   124  123  135 1   
   125  124  125 1   
   126  124  127 1   
   127  124  136 1   
   128  125  126 2   
   129  125  144 1   
   130  127  128 1   
   131  127  137 1   
   132  127  138 1   
   133  128  129 ar  
   134  128  130 ar  
   135  129  131 ar  
   136  129  139 1   
   137  130  132 ar  
   138  130  140 1   
   139  131  133 ar  
   140  131  141 1   
   141  132  133 ar  
   142  132  142 1   
   143  133  134 1   
   144  134  143 1   
   145  144  145 1   
   146  144  153 1   
   147  145  146 1   
   148  145  148 1   
   149  145  154 1   
   150  146  147 2   
   151  146  159 1   
   152  148  149 1   
   153  148  155 1   
   154  148  156 1   
   155  149  150 1   
   156  149  157 1   
   157  149  158 1   
   158  150  151 1   
   159  150  152 1   
   160  159  160 1   
   161  159  168 1   
   162  160  161 1   
   163  160  163 1   
   164  160  169 1   
   165  161  162 2   
   166  161  174 1   
   167  163  164 1   
   168  163  170 1   
   169  163  171 1   
   170  164  165 1   
   171  164  172 1   
   172  164  173 1   
   173  165  166 1   
   174  165  167 1   
   175  174  175 1   
   176  174  179 1   
   177  175  176 1   
   178  175  177 1   
   179  175  178 1   
   180  181  182 1   
   181  181  183 1   
   182  184  185 1   
   183  184  186 1   
   184  187  188 1   
   185  187  189 1   
@<TRIPOS>SUBSTRUCTURE
     1 MOL         1 TEMP              0 ****  ****    0 ROOT
