@<TRIPOS>MOLECULE
MOL
  192   187     1     0     0
SMALL
resp


@<TRIPOS>ATOM
      1 C1          4.9470    5.8920   -2.4410 c3        1 MOL     -0.241655
      2 C2          4.7140    4.3890   -2.1200 c         1 MOL      0.793645
      3 O1          4.2530    3.6350   -2.9530 o         1 MOL     -0.619307
      4 H1          4.6940    6.4930   -1.5670 hc        1 MOL      0.052917
      5 H2          5.9940    6.0500   -2.6990 hc        1 MOL      0.052917
      6 H3          4.3160    6.1870   -3.2790 hc        1 MOL      0.052917
      7 N1          5.0050    3.9850   -0.8730 n         1 MOL     -0.655343
      8 C3          4.8170    2.6160   -0.3800 c3        1 MOL     -0.022957
      9 C4          3.3810    2.1580   -0.2110 c         1 MOL      0.166046
     10 O2          3.1020    1.0020    0.0120 o         1 MOL     -0.372419
     11 C5          5.6860    2.5110    0.8690 c3        1 MOL      0.037582
     12 C6          5.7030    3.7110    1.8230 c         1 MOL      0.643943
     13 O3          5.3450    3.4050    2.9820 o         1 MOL     -0.707494
     14 O4          6.1980    4.8100    1.4560 o         1 MOL     -0.707494
     15 H4          5.2670    4.7280   -0.2460 hn        1 MOL      0.327554
     16 H5          5.1670    1.9670   -1.1830 h1        1 MOL      0.208818
     17 H6          6.7030    2.2500    0.5880 hc        1 MOL      0.009193
     18 H7          5.3380    1.6170    1.4040 hc        1 MOL      0.009193
     19 N2          2.4030    3.0430   -0.3210 n         1 MOL     -0.011290
     20 C7          1.0230    2.7990   -0.0210 c3        1 MOL      0.033203
     21 C8          0.3390    2.6050   -1.3890 c         1 MOL      0.583010
     22 O5          0.5400    3.5030   -2.2610 o         1 MOL     -0.565176
     23 C9          0.4310    4.0520    0.6540 c3        1 MOL     -0.427471
     24 C10         0.9090    4.2730    2.0830 c3        1 MOL      0.163169
     25 C11         0.6480    5.6740    2.6770 c3        1 MOL      0.069604
     26 C12         1.3220    5.9800    3.9700 c3        1 MOL     -0.029121
     27 N3          1.4480    4.7910    4.9040 n4        1 MOL     -0.305373
     28 H8          2.7380    3.9520   -0.5900 hn        1 MOL      0.165588
     29 H9          0.9260    1.9500    0.6610 h1        1 MOL      0.093479
     30 H10        -0.6590    4.0510    0.5700 hc        1 MOL      0.135590
     31 H11         0.8220    4.9090    0.0950 hc        1 MOL      0.135590
     32 H12         1.9790    4.0810    2.1610 hc        1 MOL     -0.039035
     33 H13         0.3800    3.5260    2.6880 hc        1 MOL     -0.039035
     34 H14        -0.4310    5.7270    2.8170 hc        1 MOL      0.017691
     35 H15         0.9730    6.4340    1.9600 hc        1 MOL      0.017691
     36 H16         0.7820    6.8290    4.3870 hx        1 MOL      0.097986
     37 H17         2.3380    6.3260    3.7520 hx        1 MOL      0.097986
     38 H18         0.5230    4.4660    5.1500 hn        1 MOL      0.306103
     39 H19         1.8710    3.9460    4.5450 hn        1 MOL      0.306103
     40 H20         1.8750    5.0940    5.7740 hn        1 MOL      0.306103
     41 N4         -0.5300    1.6200   -1.6520 n         1 MOL     -0.391266
     42 C13        -1.2450    0.6830   -0.8060 c3        1 MOL     -0.122730
     43 C14        -1.4860    1.1380    0.6680 c         1 MOL      0.056606
     44 O6         -0.9000    0.6480    1.6390 o         1 MOL     -0.441396
     45 C15        -0.7360   -0.7570   -0.8530 c3        1 MOL     -0.017838
     46 C16        -0.6060   -1.2500   -2.2930 c         1 MOL      0.720538
     47 O7         -1.2540   -0.8520   -3.3010 o         1 MOL     -0.837518
     48 O8          0.1070   -2.2920   -2.4360 o         1 MOL     -0.837518
     49 H21        -0.8320    1.5180   -2.6150 hn        1 MOL      0.307645
     50 H22        -2.2200    0.6540   -1.2740 h1        1 MOL      0.109819
     51 H23        -1.4420   -1.3950   -0.3130 hc        1 MOL      0.157965
     52 H24         0.2290   -0.8360   -0.3680 hc        1 MOL      0.157965
     53 N5         -2.3600    2.1290    0.9560 n         1 MOL     -0.195517
     54 C17        -3.2560    2.6740   -0.1420 c3        1 MOL     -0.009550
     55 C18        -4.0320    3.9420    0.3180 c         1 MOL      0.405000
     56 O9         -3.6010    4.6700    1.2120 o         1 MOL     -0.537336
     57 H25        -2.4930    2.4640    1.8960 hn        1 MOL      0.290184
     58 H26        -3.9510    1.9370   -0.5390 h1        1 MOL      0.086676
     59 H27        -2.7300    2.9200   -1.0650 h1        1 MOL      0.086676
     60 N6         -5.1740    4.2660   -0.2660 n         1 MOL     -0.310772
     61 C19        -5.9070    3.5220   -1.3200 c3        1 MOL     -0.012211
     62 C20        -6.8360    2.3500   -0.7740 c         1 MOL      0.566427
     63 O10        -6.9300    2.2320    0.4190 o         1 MOL     -0.484679
     64 C21        -6.7660    4.4770   -2.1730 c3        1 MOL     -0.230136
     65 C22        -7.6850    5.4150   -1.3160 c         1 MOL      0.725996
     66 O11        -7.4100    6.6140   -1.1660 o         1 MOL     -0.673637
     67 O12        -8.6460    4.8650   -0.7720 o         1 MOL     -0.673637
     68 H28        -5.4980    5.2090   -0.0590 hn        1 MOL      0.303245
     69 H29        -5.2250    3.0820   -2.0490 h1        1 MOL      0.020728
     70 H30        -7.3480    3.9710   -2.9460 hc        1 MOL      0.029329
     71 H31        -6.1920    5.2080   -2.7300 hc        1 MOL      0.029329
     72 N7         -7.5360    1.6290   -1.5880 n         1 MOL     -0.357576
     73 C23        -8.3760    0.4710   -1.2340 c3        1 MOL     -0.131813
     74 C24        -7.6670   -0.6240   -0.5060 c         1 MOL      0.516705
     75 O13        -8.3200   -1.2010    0.3980 o         1 MOL     -0.527205
     76 H32        -7.3710    1.7390   -2.5750 hn        1 MOL      0.249097
     77 H33        -8.9860    0.0690   -2.0430 h1        1 MOL      0.125541
     78 H34        -9.1120    0.8880   -0.5610 h1        1 MOL      0.125541
     79 N8         -6.3530   -0.7880   -0.8090 n         1 MOL     -0.418484
     80 C25        -5.5610   -1.9420   -0.3340 c3        1 MOL      0.077096
     81 C26        -4.5690   -1.4780    0.6980 c         1 MOL      0.691674
     82 O14        -3.8740   -0.4510    0.3880 o         1 MOL     -0.609624
     83 C27        -4.9110   -2.7010   -1.5060 c3        1 MOL      0.266726
     84 C28        -5.9500   -3.4440   -2.2900 c3        1 MOL     -0.541350
     85 O15        -3.8820   -3.6110   -1.1290 oh        1 MOL     -0.708194
     86 H35        -5.9200   -0.0730   -1.3680 hn        1 MOL      0.195994
     87 H36        -6.2430   -2.6510    0.1210 h1        1 MOL      0.049764
     88 H37        -4.4530   -1.9880   -2.1910 h1        1 MOL      0.073455
     89 H38        -4.1780   -4.2410   -0.4600 ho        1 MOL      0.451001
     90 H39        -6.5120   -4.1860   -1.7260 hc        1 MOL      0.146069
     91 H40        -6.6520   -2.7380   -2.7330 hc        1 MOL      0.146069
     92 H41        -5.4790   -3.9100   -3.1570 hc        1 MOL      0.146069
     93 N9         -4.4940   -2.1630    1.8380 n         1 MOL     -0.543792
     94 C29        -3.7380   -1.5710    2.9650 c3        1 MOL     -0.073060
     95 C30        -2.4410   -2.3970    3.2320 c         1 MOL      0.377735
     96 O16        -1.9050   -2.3950    4.3150 o         1 MOL     -0.525724
     97 C31        -4.7160   -1.7180    4.2200 c3        1 MOL      0.066288
     98 C32        -5.2200   -3.1850    4.4380 c3        1 MOL      0.193900
     99 C33        -5.9370   -0.7670    4.0280 c3        1 MOL     -0.344920
    100 C34        -6.1710   -3.3500    5.6360 c3        1 MOL     -0.189302
    101 H42        -5.0260   -3.0260    1.7990 hn        1 MOL      0.270299
    102 H43        -3.5450   -0.5640    2.6080 h1        1 MOL      0.200586
    103 H44        -4.1010   -1.4200    5.0760 hc        1 MOL      0.031314
    104 H45        -4.4240   -3.9180    4.4740 hc        1 MOL     -0.021315
    105 H46        -5.8530   -3.4970    3.6100 hc        1 MOL     -0.021315
    106 H47        -5.5910    0.2220    3.7170 hc        1 MOL      0.109804
    107 H48        -6.5660   -1.2440    3.2830 hc        1 MOL      0.109804
    108 H49        -6.5490   -0.7130    4.9350 hc        1 MOL      0.109804
    109 H50        -6.4650   -4.4070    5.6670 hc        1 MOL      0.040629
    110 H51        -5.5480   -3.1770    6.5080 hc        1 MOL      0.040629
    111 H52        -7.0650   -2.7200    5.6890 hc        1 MOL      0.040629
    112 N10        -2.0220   -3.1870    2.2680 n         1 MOL      0.005272
    113 C35        -0.8830   -4.0530    2.4500 c3        1 MOL     -0.052322
    114 C36         0.5770   -3.5390    2.3600 c         1 MOL      0.164662
    115 O17         1.5700   -4.2140    2.7320 o         1 MOL     -0.489467
    116 C37        -0.9540   -5.1900    1.3460 c3        1 MOL      0.175946
    117 C38        -0.7760   -4.6910   -0.1280 c3        1 MOL     -0.030873
    118 O18        -2.1920   -5.7200    1.3990 oh        1 MOL     -0.634352
    119 H53        -2.5490   -3.2780    1.4110 hn        1 MOL      0.090977
    120 H54        -0.8300   -4.5680    3.4130 h1        1 MOL      0.132802
    121 H55        -0.1110   -5.8600    1.4800 h1        1 MOL      0.057090
    122 H56        -2.2060   -6.4820    0.8170 ho        1 MOL      0.407984
    123 H57        -0.0390   -3.8990   -0.1830 hc        1 MOL      0.006543
    124 H58        -0.5270   -5.5200   -0.7950 hc        1 MOL      0.006543
    125 H59        -1.6090   -4.0770   -0.4610 hc        1 MOL      0.006543
    126 N11         0.7710   -2.2550    2.0020 n         1 MOL     -0.003085
    127 C39         2.0230   -1.4670    2.1150 c3        1 MOL      0.076391
    128 C40         3.1180   -1.9730    1.1690 c         1 MOL      0.438261
    129 O19         2.9130   -2.8820    0.3390 o         1 MOL     -0.487382
    130 C41         2.4980   -1.4860    3.5830 c3        1 MOL      0.217737
    131 C42         1.3870   -1.1820    4.5860 c3        1 MOL     -0.353597
    132 O20         3.4970   -0.4310    3.8900 oh        1 MOL     -0.651193
    133 H60        -0.1100   -1.7560    1.9090 hn        1 MOL      0.125889
    134 H61         1.7060   -0.4580    1.8570 h1        1 MOL      0.105695
    135 H62         2.9470   -2.4640    3.7680 h1        1 MOL      0.024770
    136 H63         3.6710   -0.5560    4.8290 ho        1 MOL      0.404682
    137 H64         1.8460   -1.1190    5.5650 hc        1 MOL      0.090447
    138 H65         0.9680   -0.2200    4.2910 hc        1 MOL      0.090447
    139 H66         0.6270   -1.9630    4.5530 hc        1 MOL      0.090447
    140 N12         4.3590   -1.4280    1.3320 n         1 MOL     -0.352789
    141 C43         5.6380   -1.9140    0.6390 c3        1 MOL     -0.030468
    142 C44         5.5560   -1.9580   -0.8960 c         1 MOL      0.637908
    143 O21         6.1630   -2.8290   -1.5140 o         1 MOL     -0.607133
    144 C45         6.7240   -0.9580    1.1470 c3        1 MOL     -0.141459
    145 C46         6.8450   -0.5660    2.6570 c3        1 MOL      0.031857
    146 C47         6.9970   -1.7430    3.5230 c3        1 MOL     -0.031268
    147 C48         7.0500   -1.5720    5.0000 c3        1 MOL      0.092970
    148 N13         7.1710   -2.8440    5.7440 n4        1 MOL     -0.305658
    149 H67         4.4940   -0.6670    1.9770 hn        1 MOL      0.282396
    150 H68         5.8570   -2.9280    0.9670 h1        1 MOL      0.048402
    151 H69         6.7350   -0.1500    0.4070 hc        1 MOL      0.066008
    152 H70         7.6900   -1.4410    0.9730 hc        1 MOL      0.066008
    153 H71         5.9110   -0.0600    2.8980 hc        1 MOL      0.017430
    154 H72         7.5880    0.2130    2.7760 hc        1 MOL      0.017430
    155 H73         7.9590   -2.1870    3.2760 hc        1 MOL      0.028957
    156 H74         6.2550   -2.5030    3.3020 hc        1 MOL      0.028957
    157 H75         6.1930   -0.9950    5.3640 hx        1 MOL      0.044188
    158 H76         7.9470   -1.0010    5.2300 hx        1 MOL      0.044188
    159 H77         6.3460   -3.3870    5.9300 hn        1 MOL      0.290277
    160 H78         7.8510   -3.4220    5.2730 hn        1 MOL      0.290277
    161 H79         7.4760   -2.5980    6.6690 hn        1 MOL      0.290277
    162 N14         4.8650   -1.0380   -1.5700 n         1 MOL      0.092183
    163 C49         5.0740   -0.7550   -2.9740 c3        1 MOL     -1.406620
    164 C50         6.4900   -0.1600   -3.2000 c         1 MOL      0.702391
    165 O22         6.8500    0.7450   -2.4900 o         1 MOL     -0.524836
    166 C51         4.0000    0.1800   -3.5950 c3        1 MOL      1.265937
    167 C52         2.5800   -0.3630   -3.5740 c3        1 MOL     -0.941919
    168 C53         2.3940   -1.5740   -4.5310 c         1 MOL      1.260824
    169 O23         3.3740   -2.3330   -4.7550 o         1 MOL     -0.936903
    170 O24         1.3230   -1.7080   -5.1840 o         1 MOL     -0.936903
    171 H80         4.2010   -0.4790   -1.0470 hn        1 MOL      0.026462
    172 H81         5.0490   -1.6680   -3.5710 h1        1 MOL      0.585469
    173 H82         4.2040    0.5340   -4.6020 hc        1 MOL     -0.213115
    174 H83         3.9390    1.0950   -3.0070 hc        1 MOL     -0.213115
    175 H84         1.9040    0.4010   -3.9730 hc        1 MOL      0.166855
    176 H85         2.2330   -0.6800   -2.6010 hc        1 MOL      0.166855
    177 N15         7.2910   -0.7230   -4.1560 n         1 MOL     -0.301609
    178 C54         8.6990   -0.2710   -4.4030 c3        1 MOL     -0.284461
    179 H86         8.9880   -0.5250   -5.4220 h1        1 MOL      0.120407
    180 H87         8.7640    0.8090   -4.2650 h1        1 MOL      0.120407
    181 H88         9.3690   -0.7680   -3.7010 h1        1 MOL      0.120407
    182 H89         6.8650   -1.5270   -4.5980 hn        1 MOL      0.248383
    183 Ca1        -0.9850   -2.6770   -5.0630 Ca        1 MOL      1.811601
    184 O25         0.5580   -4.6620   -4.6880 oh        1 MOL     -0.915871
    185 H90         1.1590   -4.5130   -3.9580 ho        1 MOL      0.455986
    186 H91         0.6770   -5.5890   -4.9090 ho        1 MOL      0.455986
    187 O26        -3.5440   -2.1850   -5.0120 oh        1 MOL     -0.915871
    188 H92        -4.4350   -2.4030   -5.2910 ho        1 MOL      0.455986
    189 H93        -3.6590   -1.4830   -4.3810 ho        1 MOL      0.455986
    190 O27        -2.1200   -4.1170   -3.1060 oh        1 MOL     -0.915871
    191 H94        -2.6740   -3.8210   -2.3850 ho        1 MOL      0.455986
    192 H95        -1.7600   -4.9500   -2.8010 ho        1 MOL      0.455986
@<TRIPOS>BOND
     1    1    2 1   
     2    1    4 1   
     3    1    5 1   
     4    1    6 1   
     5    2    3 2   
     6    2    7 1   
     7    7    8 1   
     8    7   15 1   
     9    8    9 1   
    10    8   11 1   
    11    8   16 1   
    12    9   10 2   
    13    9   19 1   
    14   11   12 1   
    15   11   17 1   
    16   11   18 1   
    17   12   13 1   
    18   12   14 1   
    19   19   20 1   
    20   19   28 1   
    21   20   21 1   
    22   20   23 1   
    23   20   29 1   
    24   21   22 2   
    25   21   41 1   
    26   23   24 1   
    27   23   30 1   
    28   23   31 1   
    29   24   25 1   
    30   24   32 1   
    31   24   33 1   
    32   25   26 1   
    33   25   34 1   
    34   25   35 1   
    35   26   27 1   
    36   26   36 1   
    37   26   37 1   
    38   27   38 1   
    39   27   39 1   
    40   27   40 1   
    41   41   42 1   
    42   41   49 1   
    43   42   43 1   
    44   42   45 1   
    45   42   50 1   
    46   43   44 2   
    47   43   53 1   
    48   45   46 1   
    49   45   51 1   
    50   45   52 1   
    51   46   47 1   
    52   46   48 1   
    53   53   54 1   
    54   53   57 1   
    55   54   55 1   
    56   54   58 1   
    57   54   59 1   
    58   55   56 2   
    59   55   60 1   
    60   60   61 1   
    61   60   68 1   
    62   61   62 1   
    63   61   64 1   
    64   61   69 1   
    65   62   63 2   
    66   62   72 1   
    67   64   65 1   
    68   64   70 1   
    69   64   71 1   
    70   65   66 1   
    71   65   67 1   
    72   72   73 1   
    73   72   76 1   
    74   73   74 1   
    75   73   77 1   
    76   73   78 1   
    77   74   75 2   
    78   74   79 1   
    79   79   80 1   
    80   79   86 1   
    81   80   81 1   
    82   80   83 1   
    83   80   87 1   
    84   81   82 2   
    85   81   93 1   
    86   83   84 1   
    87   83   85 1   
    88   83   88 1   
    89   84   90 1   
    90   84   91 1   
    91   84   92 1   
    92   85   89 1   
    93   93   94 1   
    94   93  101 1   
    95   94   95 1   
    96   94   97 1   
    97   94  102 1   
    98   95   96 2   
    99   95  112 1   
   100   97   98 1   
   101   97   99 1   
   102   97  103 1   
   103   98  100 1   
   104   98  104 1   
   105   98  105 1   
   106   99  106 1   
   107   99  107 1   
   108   99  108 1   
   109  100  109 1   
   110  100  110 1   
   111  100  111 1   
   112  112  113 1   
   113  112  119 1   
   114  113  114 1   
   115  113  116 1   
   116  113  120 1   
   117  114  115 2   
   118  114  126 1   
   119  116  117 1   
   120  116  118 1   
   121  116  121 1   
   122  117  123 1   
   123  117  124 1   
   124  117  125 1   
   125  118  122 1   
   126  126  127 1   
   127  126  133 1   
   128  127  128 1   
   129  127  130 1   
   130  127  134 1   
   131  128  129 2   
   132  128  140 1   
   133  130  131 1   
   134  130  132 1   
   135  130  135 1   
   136  131  137 1   
   137  131  138 1   
   138  131  139 1   
   139  132  136 1   
   140  140  141 1   
   141  140  149 1   
   142  141  142 1   
   143  141  144 1   
   144  141  150 1   
   145  142  143 2   
   146  142  162 1   
   147  144  145 1   
   148  144  151 1   
   149  144  152 1   
   150  145  146 1   
   151  145  153 1   
   152  145  154 1   
   153  146  147 1   
   154  146  155 1   
   155  146  156 1   
   156  147  148 1   
   157  147  157 1   
   158  147  158 1   
   159  148  159 1   
   160  148  160 1   
   161  148  161 1   
   162  162  163 1   
   163  162  171 1   
   164  163  164 1   
   165  163  166 1   
   166  163  172 1   
   167  164  165 2   
   168  164  177 1   
   169  166  167 1   
   170  166  173 1   
   171  166  174 1   
   172  167  168 1   
   173  167  175 1   
   174  167  176 1   
   175  168  169 1   
   176  168  170 1   
   177  177  178 1   
   178  177  182 1   
   179  178  179 1   
   180  178  180 1   
   181  178  181 1   
   182  184  185 1   
   183  184  186 1   
   184  187  188 1   
   185  187  189 1   
   186  190  191 1   
   187  190  192 1   
@<TRIPOS>SUBSTRUCTURE
     1 MOL         1 TEMP              0 ****  ****    0 ROOT
