@<TRIPOS>MOLECULE
MOL
  186   183     1     0     0
SMALL
resp


@<TRIPOS>ATOM
      1 C1          3.6480    4.0460   -3.5010 c3        1 MOL     -0.466800
      2 C2          4.5590    3.2280   -2.6490 c         1 MOL      0.814381
      3 O1          4.0370    2.8640   -1.6040 o         1 MOL     -0.620456
      4 H1          2.6290    3.6740   -3.4030 hc        1 MOL      0.115710
      5 H2          3.6880    5.0880   -3.1790 hc        1 MOL      0.115710
      6 H3          3.9620    3.9750   -4.5430 hc        1 MOL      0.115710
      7 N1          5.7900    2.9100   -2.9890 n         1 MOL     -0.730065
      8 C3          6.7740    1.9580   -2.3520 c3        1 MOL      0.313548
      9 C4          6.0600    0.6820   -1.8590 c         1 MOL      0.075885
     10 O2          5.5780    0.5580   -0.7110 o         1 MOL     -0.436290
     11 C5          7.6710    2.6710   -1.2270 c3        1 MOL     -0.129171
     12 C6          6.8730    3.7070   -0.4790 c         1 MOL      0.828790
     13 O3          6.2110    3.3780    0.5160 o         1 MOL     -0.752738
     14 O4          7.0530    4.9120   -0.7080 o         1 MOL     -0.752738
     15 H4          6.0900    3.2770   -3.8820 hn        1 MOL      0.332819
     16 H5          7.4720    1.6470   -3.1280 h1        1 MOL      0.024534
     17 H6          8.4800    3.1910   -1.7420 hc        1 MOL      0.016585
     18 H7          8.0060    1.9140   -0.5160 hc        1 MOL      0.016585
     19 N2          5.9920   -0.2570   -2.7890 n         1 MOL     -0.229077
     20 C7          5.3750   -1.5670   -2.6210 c3        1 MOL      0.066489
     21 C8          6.2680   -2.4720   -1.7210 c         1 MOL      0.371254
     22 O5          6.6490   -3.5480   -2.1580 o         1 MOL     -0.553138
     23 C9          3.8870   -1.5560   -2.2830 c3        1 MOL      0.115020
     24 C10         3.1530   -2.9340   -2.3770 c3        1 MOL      0.394540
     25 C11         3.1700   -0.4670   -3.0110 c3        1 MOL     -0.511095
     26 C12         3.0410   -3.5550   -3.7790 c3        1 MOL     -0.248947
     27 H8          6.4040   -0.0610   -3.6830 hn        1 MOL      0.245405
     28 H9          5.3750   -2.1160   -3.5620 h1        1 MOL      0.010168
     29 H10         3.8730   -1.2680   -1.2340 hc        1 MOL      0.058318
     30 H11         2.1450   -2.7250   -2.0130 hc        1 MOL     -0.093211
     31 H12         3.6120   -3.6540   -1.7030 hc        1 MOL     -0.093211
     32 H13         3.2830   -0.6120   -4.0860 hc        1 MOL      0.117722
     33 H14         2.1030   -0.5210   -2.8170 hc        1 MOL      0.117722
     34 H15         3.5860    0.4310   -2.5670 hc        1 MOL      0.117722
     35 H16         2.8200   -2.8050   -4.5380 hc        1 MOL      0.027937
     36 H17         4.0270   -3.9440   -4.0080 hc        1 MOL      0.027937
     37 H18         2.3250   -4.3720   -3.6880 hc        1 MOL      0.027937
     38 N3          6.6520   -1.9760   -0.5290 n         1 MOL     -0.281636
     39 C13         7.5350   -2.6780    0.3350 c3        1 MOL      0.250154
     40 C14         7.0830   -4.0460    0.8830 c         1 MOL      0.541566
     41 O6          7.9620   -4.9160    1.0810 o         1 MOL     -0.583176
     42 C15         7.9370   -1.8100    1.5120 c3        1 MOL     -0.498751
     43 C16         8.5020   -0.3740    1.1680 c         1 MOL      0.843147
     44 O7          8.4880    0.6040    1.9540 o         1 MOL     -0.733119
     45 O8          8.9800   -0.1380    0.0320 o         1 MOL     -0.733119
     46 H19         6.3820   -1.0360   -0.2890 hn        1 MOL      0.335291
     47 H20         8.4670   -2.9280   -0.1810 h1        1 MOL      0.023561
     48 H21         8.5850   -2.4010    2.1670 hc        1 MOL      0.118961
     49 H22         7.0700   -1.5800    2.1330 hc        1 MOL      0.118961
     50 N4          5.8010   -4.3890    1.1430 n         1 MOL     -0.614549
     51 C17         4.6450   -3.5690    1.5760 c3        1 MOL      0.360201
     52 C18         4.8970   -2.9630    3.0200 c         1 MOL      0.314913
     53 O9          5.9010   -3.2290    3.7240 o         1 MOL     -0.503086
     54 H23         5.7900   -5.3390    1.5040 hn        1 MOL      0.298480
     55 H24         3.8030   -4.2590    1.6680 h1        1 MOL     -0.006444
     56 H25         4.4300   -2.8780    0.7580 h1        1 MOL     -0.006444
     57 N5          4.1050   -2.0000    3.4840 n         1 MOL     -0.358456
     58 C19         2.7120   -1.6340    3.0540 c3        1 MOL      0.112452
     59 C20         2.6900   -0.8720    1.7010 c         1 MOL     -0.049442
     60 O10         3.6690   -0.4290    1.1670 o         1 MOL     -0.413724
     61 C21         2.1040   -0.6790    4.0690 c3        1 MOL     -0.158465
     62 C22         2.9740    0.6140    4.1730 c         1 MOL      0.756769
     63 O11         3.6150    0.7050    5.2490 o         1 MOL     -0.710415
     64 O12         3.0020    1.4280    3.2050 o         1 MOL     -0.710415
     65 H26         4.4360   -1.5360    4.3150 hn        1 MOL      0.313290
     66 H27         2.0350   -2.4930    3.0360 h1        1 MOL      0.050961
     67 H28         1.9920   -1.2840    4.9670 hc        1 MOL      0.031571
     68 H29         1.1010   -0.3620    3.7820 hc        1 MOL      0.031571
     69 N6          1.4540   -0.7360    1.0830 n         1 MOL     -0.137259
     70 C23         0.1090   -1.3360    1.3390 c3        1 MOL      0.099889
     71 C24        -0.2340   -2.6840    0.7090 c         1 MOL      0.522740
     72 O13         0.5300   -3.2580   -0.0550 o         1 MOL     -0.516942
     73 H30         1.4100   -0.0730    0.3190 hn        1 MOL      0.193705
     74 H31        -0.7000   -0.7430    0.9190 h1        1 MOL      0.026917
     75 H32        -0.2450   -1.4730    2.3680 h1        1 MOL      0.026917
     76 N7         -1.3670   -3.2440    1.0020 n         1 MOL     -0.454407
     77 C25        -1.9630   -4.5650    0.5570 c3        1 MOL     -0.098534
     78 C26        -2.6690   -4.5900   -0.8520 c         1 MOL      0.614378
     79 O14        -2.6830   -5.6590   -1.4510 o         1 MOL     -0.567243
     80 C27        -2.6360   -5.4010    1.7210 c3        1 MOL      0.204695
     81 C28        -3.8960   -4.7160    2.2340 c3        1 MOL     -0.432249
     82 C29        -5.0140   -4.5460    1.1760 c         1 MOL      0.398067
     83 N8         -5.8510   -5.5040    1.0160 n         1 MOL     -0.635530
     84 O15        -5.1640   -3.5200    0.5380 o         1 MOL     -0.501526
     85 H33        -1.8630   -2.6960    1.6890 hn        1 MOL      0.279238
     86 H34        -1.0250   -5.0780    0.3810 h1        1 MOL      0.096636
     87 H35        -1.9710   -5.5140    2.5730 hc        1 MOL      0.003327
     88 H36        -2.8630   -6.4170    1.3730 hc        1 MOL      0.003327
     89 H37        -3.6410   -3.6920    2.4730 hc        1 MOL      0.141519
     90 H38        -4.2980   -5.3360    3.0380 hc        1 MOL      0.141519
     91 H39        -5.5690   -6.3770    1.4670 hn        1 MOL      0.350491
     92 H40        -6.6280   -5.4090    0.3760 hn        1 MOL      0.350491
     93 N9         -3.0710   -3.4340   -1.3490 n         1 MOL     -0.198496
     94 C30        -3.2390   -3.1370   -2.7580 c3        1 MOL     -0.435721
     95 C31        -4.5530   -2.4230   -3.0440 c         1 MOL      0.443909
     96 O16        -4.8490   -1.8450   -4.0690 o         1 MOL     -0.542803
     97 C32        -2.1020   -2.2040   -3.2930 c3        1 MOL      0.483256
     98 C33        -0.7460   -2.8720   -3.3150 c3        1 MOL     -0.228072
     99 C34        -1.9290   -0.8570   -2.7320 c3        1 MOL     -0.228072
    100 H41        -3.0080   -2.6310   -0.7250 hn        1 MOL      0.184925
    101 H42        -3.2760   -4.0060   -3.4100 h1        1 MOL      0.185664
    102 H43        -2.3370   -2.0420   -4.3500 hc        1 MOL     -0.063225
    103 H44        -0.4990   -3.2350   -2.3210 hc        1 MOL      0.043164
    104 H45        -0.9530   -3.7760   -3.8850 hc        1 MOL      0.043164
    105 H46         0.0390   -2.2960   -3.8020 hc        1 MOL      0.043164
    106 H47        -1.4910   -0.2310   -3.5200 hc        1 MOL      0.043164
    107 H48        -2.8710   -0.4730   -2.3610 hc        1 MOL      0.043164
    108 H49        -1.2010   -0.9460   -1.9250 hc        1 MOL      0.043164
    109 N10        -5.3970   -2.3420   -1.9970 n         1 MOL     -0.089504
    110 C35        -6.8150   -1.9180   -2.0990 c3        1 MOL     -0.136407
    111 C36        -7.0550   -0.5400   -1.5830 c         1 MOL      0.527325
    112 O17        -8.1260   -0.0210   -1.9230 o         1 MOL     -0.562792
    113 C37        -7.8050   -2.9740   -1.5870 c3        1 MOL     -0.055113
    114 C38        -7.6980   -4.3910   -2.0030 c         1 MOL      0.644289
    115 N11        -7.3540   -4.7420   -3.2160 n         1 MOL     -0.764885
    116 O18        -7.9980   -5.2670   -1.1700 o         1 MOL     -0.606680
    117 H50        -5.1170   -2.6450   -1.0690 hn        1 MOL      0.190685
    118 H51        -7.0610   -1.9100   -3.1680 h1        1 MOL      0.098037
    119 H52        -8.8400   -2.7460   -1.8220 hc        1 MOL      0.039584
    120 H53        -7.6800   -3.0370   -0.5040 hc        1 MOL      0.039584
    121 H54        -7.0420   -4.1010   -3.9380 hn        1 MOL      0.367832
    122 H55        -7.4450   -5.7360   -3.3420 hn        1 MOL      0.367832
    123 N12        -6.1760    0.1800   -0.9320 n         1 MOL     -0.293556
    124 C39        -6.3850    1.5220   -0.3510 c3        1 MOL      0.054176
    125 C40        -5.1890    2.3780   -0.1680 c         1 MOL      0.602517
    126 O19        -4.0590    1.9930    0.1600 o         1 MOL     -0.431295
    127 C41        -7.2160    1.3750    0.9650 c3        1 MOL     -0.228906
    128 C42        -6.6570    0.6310    2.1600 ca        1 MOL      0.132039
    129 C43        -6.8250   -0.7810    2.2370 ca        1 MOL     -0.202687
    130 C44        -5.9940    1.3400    3.1640 ca        1 MOL     -0.202687
    131 C45        -6.2130   -1.5090    3.2030 ca        1 MOL     -0.153226
    132 C46        -5.5880    0.6280    4.3130 ca        1 MOL     -0.153226
    133 C47        -5.6500   -0.8210    4.2800 ca        1 MOL      0.140406
    134 O20        -5.0590   -1.4840    5.3110 oh        1 MOL     -0.412275
    135 H56        -5.2330   -0.1820   -0.9670 hn        1 MOL      0.154834
    136 H57        -6.9920    2.0410   -1.0840 h1        1 MOL      0.051706
    137 H58        -8.1890    1.0370    0.6140 hc        1 MOL      0.084019
    138 H59        -7.3620    2.4090    1.2840 hc        1 MOL      0.084019
    139 H60        -7.4840   -1.2830    1.5370 ha        1 MOL      0.137975
    140 H61        -5.7000    2.3790    3.1120 ha        1 MOL      0.137975
    141 H62        -6.2040   -2.5880    3.1810 ha        1 MOL      0.163100
    142 H63        -5.2090    1.1100    5.2020 ha        1 MOL      0.163100
    143 H64        -5.4500   -2.3580    5.3590 ho        1 MOL      0.297329
    144 N13        -5.4000    3.6740   -0.2810 n         1 MOL     -0.649577
    145 C48        -4.6000    4.8430    0.1750 c3        1 MOL      0.014150
    146 C49        -3.1290    4.9750   -0.3430 c         1 MOL      0.312582
    147 O21        -2.4250    5.9880   -0.1620 o         1 MOL     -0.494155
    148 C50        -4.6030    4.8860    1.7330 c3        1 MOL     -0.088747
    149 C51        -6.0340    5.2910    2.2880 c3        1 MOL      0.085507
    150 C52        -6.0160    5.6140    3.8110 c         1 MOL      0.539673
    151 O22        -5.4050    4.8500    4.5840 o         1 MOL     -0.677604
    152 O23        -6.3690    6.7910    4.1280 o         1 MOL     -0.677604
    153 H65        -6.3420    3.9420   -0.5340 hn        1 MOL      0.328867
    154 H66        -5.1810    5.7230   -0.1040 h1        1 MOL      0.118902
    155 H67        -4.0080    5.7090    2.1180 hc        1 MOL      0.110195
    156 H68        -4.3570    3.9150    2.1550 hc        1 MOL      0.110195
    157 H69        -6.6340    4.4000    2.1250 hc        1 MOL     -0.080271
    158 H70        -6.5150    6.1550    1.8320 hc        1 MOL     -0.080271
    159 N14        -2.7100    4.0190   -1.2030 n         1 MOL     -0.126108
    160 C53        -1.4990    4.1060   -2.0030 c3        1 MOL     -0.294182
    161 C54        -1.6970    4.7630   -3.3730 c         1 MOL      0.470291
    162 O24        -0.6890    4.8480   -4.0800 o         1 MOL     -0.503064
    163 C55        -0.8180    2.6950   -2.1400 c3        1 MOL      0.037839
    164 C56        -0.4350    1.9450   -0.9050 c3        1 MOL      0.219028
    165 C57         0.4590    2.6610    0.0630 c         1 MOL      0.506965
    166 O25        -0.0060    3.4350    0.9240 o         1 MOL     -0.622156
    167 O26         1.6680    2.3400    0.0910 o         1 MOL     -0.622156
    168 H71        -3.2100    3.1440   -1.2070 hn        1 MOL      0.136705
    169 H72        -0.8440    4.6900   -1.3510 h1        1 MOL      0.237580
    170 H73         0.0790    2.7250   -2.7600 hc        1 MOL      0.006061
    171 H74        -1.5840    2.0640   -2.5940 hc        1 MOL      0.006061
    172 H75         0.1080    1.0510   -1.2110 hc        1 MOL     -0.078228
    173 H76        -1.2710    1.4900   -0.3610 hc        1 MOL     -0.078228
    174 N15        -2.9490    5.2350   -3.6700 n         1 MOL     -0.184275
    175 C58        -3.2580    5.9360   -4.8310 c3        1 MOL     -0.264548
    176 H77        -4.3400    6.0180   -4.9270 h1        1 MOL      0.093141
    177 H78        -2.8210    6.9330   -4.7800 h1        1 MOL      0.093141
    178 H79        -2.8550    5.4060   -5.6940 h1        1 MOL      0.093141
    179 H80        -3.6730    5.0740   -2.9840 hn        1 MOL      0.214490
    180 Ca1         4.1090    2.1230    0.9070 Ca        1 MOL      1.720610
    181 O27         3.6090    4.6740    1.8050 oh        1 MOL     -0.864408
    182 H81         2.8470    5.2390    1.6710 ho        1 MOL      0.411782
    183 H82         3.8800    4.8490    2.7080 ho        1 MOL      0.411782
    184 O28         5.8330    0.9480    2.5630 oh        1 MOL     -0.864408
    185 H83         6.7510    0.7260    2.4330 ho        1 MOL      0.411782
    186 H84         5.7860    1.2320    3.4730 ho        1 MOL      0.411782
@<TRIPOS>BOND
     1    1    2 1   
     2    1    4 1   
     3    1    5 1   
     4    1    6 1   
     5    2    3 2   
     6    2    7 1   
     7    7    8 1   
     8    7   15 1   
     9    8    9 1   
    10    8   11 1   
    11    8   16 1   
    12    9   10 2   
    13    9   19 1   
    14   11   12 1   
    15   11   17 1   
    16   11   18 1   
    17   12   13 1   
    18   12   14 1   
    19   19   20 1   
    20   19   27 1   
    21   20   21 1   
    22   20   23 1   
    23   20   28 1   
    24   21   22 2   
    25   21   38 1   
    26   23   24 1   
    27   23   25 1   
    28   23   29 1   
    29   24   26 1   
    30   24   30 1   
    31   24   31 1   
    32   25   32 1   
    33   25   33 1   
    34   25   34 1   
    35   26   35 1   
    36   26   36 1   
    37   26   37 1   
    38   38   39 1   
    39   38   46 1   
    40   39   40 1   
    41   39   42 1   
    42   39   47 1   
    43   40   41 2   
    44   40   50 1   
    45   42   43 1   
    46   42   48 1   
    47   42   49 1   
    48   43   44 1   
    49   43   45 1   
    50   50   51 1   
    51   50   54 1   
    52   51   52 1   
    53   51   55 1   
    54   51   56 1   
    55   52   53 2   
    56   52   57 1   
    57   57   58 1   
    58   57   65 1   
    59   58   59 1   
    60   58   61 1   
    61   58   66 1   
    62   59   60 2   
    63   59   69 1   
    64   61   62 1   
    65   61   67 1   
    66   61   68 1   
    67   62   63 1   
    68   62   64 1   
    69   69   70 1   
    70   69   73 1   
    71   70   71 1   
    72   70   74 1   
    73   70   75 1   
    74   71   72 2   
    75   71   76 1   
    76   76   77 1   
    77   76   85 1   
    78   77   78 1   
    79   77   80 1   
    80   77   86 1   
    81   78   79 2   
    82   78   93 1   
    83   80   81 1   
    84   80   87 1   
    85   80   88 1   
    86   81   82 1   
    87   81   89 1   
    88   81   90 1   
    89   82   83 1   
    90   82   84 2   
    91   83   91 1   
    92   83   92 1   
    93   93   94 1   
    94   93  100 1   
    95   94   95 1   
    96   94   97 1   
    97   94  101 1   
    98   95   96 2   
    99   95  109 1   
   100   97   98 1   
   101   97   99 1   
   102   97  102 1   
   103   98  103 1   
   104   98  104 1   
   105   98  105 1   
   106   99  106 1   
   107   99  107 1   
   108   99  108 1   
   109  109  110 1   
   110  109  117 1   
   111  110  111 1   
   112  110  113 1   
   113  110  118 1   
   114  111  112 2   
   115  111  123 1   
   116  113  114 1   
   117  113  119 1   
   118  113  120 1   
   119  114  115 1   
   120  114  116 2   
   121  115  121 1   
   122  115  122 1   
   123  123  124 1   
   124  123  135 1   
   125  124  125 1   
   126  124  127 1   
   127  124  136 1   
   128  125  126 2   
   129  125  144 1   
   130  127  128 1   
   131  127  137 1   
   132  127  138 1   
   133  128  129 ar  
   134  128  130 ar  
   135  129  131 ar  
   136  129  139 1   
   137  130  132 ar  
   138  130  140 1   
   139  131  133 ar  
   140  131  141 1   
   141  132  133 ar  
   142  132  142 1   
   143  133  134 1   
   144  134  143 1   
   145  144  145 1   
   146  144  153 1   
   147  145  146 1   
   148  145  148 1   
   149  145  154 1   
   150  146  147 2   
   151  146  159 1   
   152  148  149 1   
   153  148  155 1   
   154  148  156 1   
   155  149  150 1   
   156  149  157 1   
   157  149  158 1   
   158  150  151 1   
   159  150  152 1   
   160  159  160 1   
   161  159  168 1   
   162  160  161 1   
   163  160  163 1   
   164  160  169 1   
   165  161  162 2   
   166  161  174 1   
   167  163  164 1   
   168  163  170 1   
   169  163  171 1   
   170  164  165 1   
   171  164  172 1   
   172  164  173 1   
   173  165  166 1   
   174  165  167 1   
   175  174  175 1   
   176  174  179 1   
   177  175  176 1   
   178  175  177 1   
   179  175  178 1   
   180  181  182 1   
   181  181  183 1   
   182  184  185 1   
   183  184  186 1   
@<TRIPOS>SUBSTRUCTURE
     1 MOL         1 TEMP              0 ****  ****    0 ROOT
