@<TRIPOS>MOLECULE
MOL
  181   177     1     0     0
SMALL
resp


@<TRIPOS>ATOM
      1 C1         -5.8370   -4.5930   -5.2030 c3        1 MOL     -0.310972
      2 C2         -5.6950   -3.1080   -4.7240 c         1 MOL      0.616325
      3 O1         -4.8930   -2.3290   -5.2240 o         1 MOL     -0.601718
      4 H1         -6.8720   -4.7850   -5.4890 hc        1 MOL      0.088262
      5 H2         -5.1860   -4.7630   -6.0600 hc        1 MOL      0.088262
      6 H3         -5.5540   -5.2650   -4.3930 hc        1 MOL      0.088262
      7 N1         -6.3460   -2.6420   -3.7220 n         1 MOL     -0.390922
      8 C3         -7.3290   -3.1950   -2.7890 c3        1 MOL     -0.010543
      9 C4         -6.8670   -3.5680   -1.3970 c         1 MOL      0.636613
     10 O2         -6.0120   -2.8430   -0.8230 o         1 MOL     -0.606461
     11 C5         -8.6010   -2.3500   -2.7540 c3        1 MOL     -0.040994
     12 C6         -8.3120   -0.9020   -2.5080 c         1 MOL      0.617698
     13 O3         -9.3460   -0.1620   -2.6630 o         1 MOL     -0.681248
     14 O4         -7.1650   -0.4670   -2.2950 o         1 MOL     -0.681248
     15 H4         -6.0760   -1.6850   -3.5660 hn        1 MOL      0.299942
     16 H5         -7.6140   -4.1320   -3.2660 h1        1 MOL      0.003152
     17 H6         -9.2940   -2.7610   -2.0180 hc        1 MOL      0.031470
     18 H7         -9.0440   -2.4770   -3.7360 hc        1 MOL      0.031470
     19 N2         -7.2300   -4.7490   -0.8750 n         1 MOL     -0.561638
     20 C7         -6.7650   -5.3490    0.4110 c3        1 MOL      0.125421
     21 C8         -6.9150   -4.5060    1.7080 c         1 MOL      0.394462
     22 O5         -6.9910   -5.1210    2.7590 o         1 MOL     -0.532529
     23 C9         -5.3500   -6.0060    0.1900 c3        1 MOL     -0.163230
     24 H8         -7.8740   -5.2880   -1.4460 hn        1 MOL      0.315353
     25 H9         -7.4520   -6.1740    0.5800 h1        1 MOL      0.065157
     26 H10        -5.2200   -6.7710   -0.5800 hc        1 MOL      0.070267
     27 H11        -4.5740   -5.2630    0.0030 hc        1 MOL      0.070267
     28 H12        -5.0910   -6.6020    1.0700 hc        1 MOL      0.070267
     29 N3         -6.9130   -3.1750    1.7080 n         1 MOL     -0.121748
     30 C10        -7.1240   -2.2890    2.8340 c3        1 MOL      0.027991
     31 C11        -7.4980   -0.9330    2.2520 c         1 MOL      0.389170
     32 O6         -7.3460   -0.6800    1.0700 o         1 MOL     -0.512889
     33 C12        -5.9350   -2.0340    3.6970 c3        1 MOL     -0.066332
     34 C13        -4.6720   -1.5780    2.9630 c         1 MOL      0.629550
     35 O7         -4.7590   -0.9640    1.8760 o         1 MOL     -0.622198
     36 O8         -3.5830   -1.8000    3.4460 o         1 MOL     -0.622198
     37 H13        -6.7090   -2.7600    0.8060 hn        1 MOL      0.072518
     38 H14        -7.9650   -2.5910    3.4570 h1        1 MOL      0.031302
     39 H15        -5.6740   -2.9420    4.2250 hc        1 MOL      0.029542
     40 H16        -6.1260   -1.2010    4.3640 hc        1 MOL      0.029542
     41 N4         -8.0570   -0.0930    3.0690 n         1 MOL     -0.294286
     42 C14        -8.5070    1.3100    2.7670 c3        1 MOL     -0.201717
     43 C15        -7.4350    2.4240    3.0110 c         1 MOL      0.506623
     44 O9         -7.6710    3.6090    3.2380 o         1 MOL     -0.548073
     45 H17        -8.3410   -0.5200    3.9440 hn        1 MOL      0.286375
     46 H18        -9.4160    1.6670    3.2530 h1        1 MOL      0.122899
     47 H19        -8.6420    1.4660    1.6990 h1        1 MOL      0.122899
     48 N5         -6.2160    1.8660    2.9800 n         1 MOL     -0.014090
     49 C16        -4.9860    2.5280    3.1170 c3        1 MOL     -0.475381
     50 C17        -4.2790    2.7250    1.8020 c         1 MOL      1.099260
     51 O10        -4.3090    1.8380    0.9640 o         1 MOL     -0.759299
     52 C18        -4.0770    1.8570    4.2130 c3        1 MOL     -0.094418
     53 C19        -4.7000    1.6960    5.4830 c         1 MOL      0.759493
     54 N6         -5.2450    2.7070    6.1000 n         1 MOL     -0.856776
     55 O11        -4.6980    0.5870    6.0110 o         1 MOL     -0.556848
     56 H20        -6.2030    0.8590    2.9800 hn        1 MOL      0.002597
     57 H21        -5.1650    3.5270    3.5030 h1        1 MOL      0.102141
     58 H22        -3.1300    2.3590    4.4070 hc        1 MOL      0.074199
     59 H23        -3.7730    0.8460    3.9150 hc        1 MOL      0.074199
     60 H24        -5.2520    3.6440    5.7330 hn        1 MOL      0.369162
     61 H25        -6.0040    2.5860    6.7390 hn        1 MOL      0.369162
     62 N7         -3.6310    3.8740    1.5550 n         1 MOL     -0.850302
     63 C20        -2.7870    3.9740    0.3730 c3        1 MOL      0.473938
     64 C21        -2.5600    5.3950   -0.0900 c         1 MOL      0.512137
     65 O12        -3.0010    6.3780    0.5350 o         1 MOL     -0.575552
     66 H26        -3.4170    4.4580    2.3560 hn        1 MOL      0.376522
     67 H27        -3.3350    3.5710   -0.4800 h1        1 MOL     -0.043411
     68 H28        -1.8560    3.4200    0.4700 h1        1 MOL     -0.043411
     69 N8         -1.7190    5.6780   -1.0620 n         1 MOL     -0.485253
     70 C22        -1.0570    4.7590   -2.0580 c3        1 MOL     -0.127186
     71 C23         0.3350    4.2470   -1.6260 c         1 MOL      0.638978
     72 O13         1.0620    5.0400   -1.0220 o         1 MOL     -0.519561
     73 C24        -1.1250    5.2870   -3.4610 c3        1 MOL      0.456044
     74 C25        -2.5940    5.5090   -3.8840 c3        1 MOL     -0.368443
     75 O14        -0.5900    6.6040   -3.5350 oh        1 MOL     -0.621138
     76 H29        -1.8070    6.6150   -1.4270 hn        1 MOL      0.350088
     77 H30        -1.6810    3.8610   -2.0670 h1        1 MOL      0.028548
     78 H31        -0.6360    4.5790   -4.1340 h1        1 MOL      0.008936
     79 H32         0.2020    6.6440   -4.0700 ho        1 MOL      0.407740
     80 H33        -2.9570    6.4490   -3.4690 hc        1 MOL      0.084815
     81 H34        -2.6640    5.4390   -4.9700 hc        1 MOL      0.084815
     82 H35        -3.1920    4.6760   -3.4970 hc        1 MOL      0.084815
     83 N9          0.6440    2.9390   -1.8570 n         1 MOL     -0.631196
     84 C26         1.8750    2.3130   -1.5030 c3        1 MOL      0.242125
     85 C27         2.8750    2.4510   -2.6820 c         1 MOL      0.531563
     86 O15         2.5050    2.6950   -3.8590 o         1 MOL     -0.586325
     87 C28         1.6280    0.8410   -1.1780 c3        1 MOL     -0.114720
     88 C29         0.4620    0.2080   -2.0090 c3        1 MOL      0.532793
     89 C30         1.2500    0.6290    0.2890 c3        1 MOL     -0.122092
     90 C31         0.4560   -1.3140   -2.1680 c3        1 MOL     -0.569117
     91 H36        -0.0120    2.4180   -2.4290 hn        1 MOL      0.266917
     92 H37         2.2470    2.8580   -0.6340 h1        1 MOL      0.073303
     93 H38         2.5470    0.2570   -1.2390 hc        1 MOL     -0.004547
     94 H39         0.4990    0.6500   -2.9990 hc        1 MOL     -0.120183
     95 H40        -0.5310    0.5340   -1.7200 hc        1 MOL     -0.120183
     96 H41         0.3310    1.1730    0.5230 hc        1 MOL      0.034225
     97 H42         1.1560   -0.4130    0.5840 hc        1 MOL      0.034225
     98 H43         1.9590    1.1490    0.9290 hc        1 MOL      0.034225
     99 H44         0.1590   -1.5870   -3.1760 hc        1 MOL      0.130246
    100 H45         1.3250   -1.8480   -1.7700 hc        1 MOL      0.130246
    101 H46        -0.2100   -1.6890   -1.3860 hc        1 MOL      0.130246
    102 N10         4.1520    2.1870   -2.4320 n         1 MOL     -0.545956
    103 C32         4.8520    2.1900   -1.1190 c3        1 MOL      0.121203
    104 C33         6.1600    1.3270   -1.0240 c         1 MOL      0.504668
    105 O16         6.8870    1.2850   -1.9730 o         1 MOL     -0.496639
    106 C34         5.2770    3.6830   -0.8890 c3        1 MOL     -0.096804
    107 C35         6.0970    4.1990   -1.9750 c         1 MOL      0.798482
    108 O17         7.2030    4.7430   -1.7080 o         1 MOL     -0.750486
    109 O18         5.6800    4.2370   -3.1380 o         1 MOL     -0.750486
    110 H47         4.6960    2.2820   -3.2740 hn        1 MOL      0.351231
    111 H48         4.1840    1.8360   -0.3270 h1        1 MOL      0.012205
    112 H49         5.9040    3.8340   -0.0140 hc        1 MOL     -0.010606
    113 H50         4.4560    4.3910   -0.7880 hc        1 MOL     -0.010606
    114 N11         6.5000    0.8410    0.2190 n         1 MOL     -0.604138
    115 C36         7.8190    0.3530    0.6920 c3        1 MOL      0.570535
    116 C37         7.7320   -0.6950    1.7590 c         1 MOL     -0.008945
    117 O19         6.7740   -0.6070    2.5730 o         1 MOL     -0.429965
    118 C38         8.5100    1.6190    1.1880 c3        1 MOL      0.036734
    119 C39         9.9220    1.4430    1.8300 ca        1 MOL      0.046946
    120 C40        10.1660    1.7490    3.1780 ca        1 MOL     -0.192862
    121 C41        10.9630    1.0390    0.9530 ca        1 MOL     -0.192862
    122 C42        11.4970    1.6180    3.6900 ca        1 MOL     -0.068891
    123 C43        12.2860    0.8300    1.5400 ca        1 MOL     -0.068891
    124 C44        12.5460    1.1790    2.9050 ca        1 MOL     -0.154426
    125 H51         5.8410    1.0190    0.9580 hn        1 MOL      0.295456
    126 H52         8.4070    0.0480   -0.1780 h1        1 MOL     -0.058116
    127 H53         7.9150    2.0600    1.9800 hc        1 MOL      0.001384
    128 H54         8.5120    2.3390    0.3730 hc        1 MOL      0.001384
    129 H55         9.3450    2.1520    3.7480 ha        1 MOL      0.138595
    130 H56        10.7540    0.8750   -0.0930 ha        1 MOL      0.138595
    131 H57        11.6610    1.8260    4.7350 ha        1 MOL      0.084507
    132 H58        13.1420    0.5510    0.9410 ha        1 MOL      0.084507
    133 H59        13.5750    1.0940    3.2520 ha        1 MOL      0.100979
    134 N12         8.6140   -1.7100    1.8250 n         1 MOL      0.091252
    135 C45         9.4670   -2.1860    0.7870 c3        1 MOL     -0.001652
    136 C46         8.7250   -3.0750   -0.2410 c         1 MOL      0.541621
    137 O20         9.3190   -3.4770   -1.2460 o         1 MOL     -0.617829
    138 C47        10.4930   -3.0350    1.5210 c3        1 MOL     -0.015783
    139 C48        10.0760   -3.2630    2.9690 c3        1 MOL     -0.066626
    140 C49         8.6600   -2.6560    3.0030 c3        1 MOL     -0.055268
    141 H60         9.9940   -1.4000    0.2450 h1        1 MOL      0.042771
    142 H61        10.7990   -3.9470    1.0060 hc        1 MOL      0.012324
    143 H62        11.3710   -2.3960    1.5980 hc        1 MOL      0.012324
    144 H63        10.0520   -4.3200    3.2140 hc        1 MOL      0.028980
    145 H64        10.6990   -2.6790    3.6590 hc        1 MOL      0.028980
    146 H65         7.9560   -3.4560    2.7600 h1        1 MOL      0.057938
    147 H66         8.4670   -2.2390    3.9960 h1        1 MOL      0.057938
    148 N13         7.4870   -3.3990   -0.0970 n         1 MOL     -0.535074
    149 C50         6.4740   -3.6650   -1.1450 c3        1 MOL      0.477395
    150 C51         6.6760   -5.0930   -1.6760 c         1 MOL      0.340663
    151 O21         6.1820   -6.0750   -1.1020 o         1 MOL     -0.544569
    152 C52         5.0640   -3.5340   -0.4510 c3        1 MOL     -0.516160
    153 C53         4.5630   -2.1650   -0.0080 c3        1 MOL     -0.109014
    154 C54         3.5000   -2.1220    1.1220 c         1 MOL      0.809842
    155 O22         3.4740   -1.1140    1.8740 o         1 MOL     -0.730111
    156 O23         2.8260   -3.0830    1.5190 o         1 MOL     -0.730111
    157 H67         6.9750   -3.0690    0.7100 hn        1 MOL      0.380386
    158 H68         6.5420   -3.0100   -2.0070 h1        1 MOL      0.004486
    159 H69         5.2010   -4.1230    0.4520 hc        1 MOL      0.117612
    160 H70         4.3700   -4.0260   -1.1440 hc        1 MOL      0.117612
    161 H71         4.1230   -1.7530   -0.9220 hc        1 MOL      0.022479
    162 H72         5.4030   -1.5020    0.2190 hc        1 MOL      0.022479
    163 N14         7.5230   -5.3370   -2.6980 n         1 MOL     -0.220082
    164 C55         7.8350   -4.3920   -3.7350 c3        1 MOL     -0.104744
    165 H73         8.8570   -4.5530   -4.0780 h1        1 MOL      0.057120
    166 H74         7.1460   -4.5280   -4.5690 h1        1 MOL      0.057120
    167 H75         7.7380   -3.3790   -3.3450 h1        1 MOL      0.057120
    168 H76         7.7370   -6.3100   -2.8660 hn        1 MOL      0.228092
    169 Ca1        -5.2170   -0.0560   -0.5610 Ca        1 MOL      1.771217
    170 O24        -2.6180   -0.6030    0.0300 oh        1 MOL     -0.816369
    171 H77        -1.9240   -0.1720    0.5360 ho        1 MOL      0.399953
    172 H78        -2.7920   -1.4220    0.5050 ho        1 MOL      0.399953
    173 O25        -3.7740   -1.2190   -2.4760 oh        1 MOL     -0.816369
    174 H79        -3.9130   -1.5180   -3.3760 ho        1 MOL      0.399953
    175 H80        -3.0030   -1.7190   -2.1770 ho        1 MOL      0.399953
    176 O26        -4.7520    1.9540   -2.4080 oh        1 MOL     -0.816369
    177 H81        -4.8440    1.9400   -3.3560 ho        1 MOL      0.399953
    178 H82        -4.9150    2.8570   -2.1570 ho        1 MOL      0.399953
    179 O27        -7.0590    1.8130   -0.6010 oh        1 MOL     -0.816369
    180 H83        -7.6330    1.2170   -1.0700 ho        1 MOL      0.399953
    181 H84        -7.4610    2.6680   -0.7210 ho        1 MOL      0.399953
@<TRIPOS>BOND
     1    1    2 1   
     2    1    4 1   
     3    1    5 1   
     4    1    6 1   
     5    2    3 2   
     6    2    7 1   
     7    7    8 1   
     8    7   15 1   
     9    8    9 1   
    10    8   11 1   
    11    8   16 1   
    12    9   10 2   
    13    9   19 1   
    14   11   12 1   
    15   11   17 1   
    16   11   18 1   
    17   12   13 1   
    18   12   14 1   
    19   19   20 1   
    20   19   24 1   
    21   20   21 1   
    22   20   23 1   
    23   20   25 1   
    24   21   22 2   
    25   21   29 1   
    26   23   26 1   
    27   23   27 1   
    28   23   28 1   
    29   29   30 1   
    30   29   37 1   
    31   30   31 1   
    32   30   33 1   
    33   30   38 1   
    34   31   32 2   
    35   31   41 1   
    36   33   34 1   
    37   33   39 1   
    38   33   40 1   
    39   34   35 1   
    40   34   36 1   
    41   41   42 1   
    42   41   45 1   
    43   42   43 1   
    44   42   46 1   
    45   42   47 1   
    46   43   44 2   
    47   43   48 1   
    48   48   49 1   
    49   48   56 1   
    50   49   50 1   
    51   49   52 1   
    52   49   57 1   
    53   50   51 2   
    54   50   62 1   
    55   52   53 1   
    56   52   58 1   
    57   52   59 1   
    58   53   54 1   
    59   53   55 2   
    60   54   60 1   
    61   54   61 1   
    62   62   63 1   
    63   62   66 1   
    64   63   64 1   
    65   63   67 1   
    66   63   68 1   
    67   64   65 2   
    68   64   69 1   
    69   69   70 1   
    70   69   76 1   
    71   70   71 1   
    72   70   73 1   
    73   70   77 1   
    74   71   72 2   
    75   71   83 1   
    76   73   74 1   
    77   73   75 1   
    78   73   78 1   
    79   74   80 1   
    80   74   81 1   
    81   74   82 1   
    82   75   79 1   
    83   83   84 1   
    84   83   91 1   
    85   84   85 1   
    86   84   87 1   
    87   84   92 1   
    88   85   86 2   
    89   85  102 1   
    90   87   88 1   
    91   87   89 1   
    92   87   93 1   
    93   88   90 1   
    94   88   94 1   
    95   88   95 1   
    96   89   96 1   
    97   89   97 1   
    98   89   98 1   
    99   90   99 1   
   100   90  100 1   
   101   90  101 1   
   102  102  103 1   
   103  102  110 1   
   104  103  104 1   
   105  103  106 1   
   106  103  111 1   
   107  104  105 2   
   108  104  114 1   
   109  106  107 1   
   110  106  112 1   
   111  106  113 1   
   112  107  108 1   
   113  107  109 1   
   114  114  115 1   
   115  114  125 1   
   116  115  116 1   
   117  115  118 1   
   118  115  126 1   
   119  116  117 2   
   120  116  134 1   
   121  118  119 1   
   122  118  127 1   
   123  118  128 1   
   124  119  120 ar  
   125  119  121 ar  
   126  120  122 ar  
   127  120  129 1   
   128  121  123 ar  
   129  121  130 1   
   130  122  124 ar  
   131  122  131 1   
   132  123  124 ar  
   133  123  132 1   
   134  124  133 1   
   135  134  135 1   
   136  134  140 1   
   137  135  136 1   
   138  135  138 1   
   139  135  141 1   
   140  136  137 2   
   141  136  148 1   
   142  138  139 1   
   143  138  142 1   
   144  138  143 1   
   145  139  140 1   
   146  139  144 1   
   147  139  145 1   
   148  140  146 1   
   149  140  147 1   
   150  148  149 1   
   151  148  157 1   
   152  149  150 1   
   153  149  152 1   
   154  149  158 1   
   155  150  151 2   
   156  150  163 1   
   157  152  153 1   
   158  152  159 1   
   159  152  160 1   
   160  153  154 1   
   161  153  161 1   
   162  153  162 1   
   163  154  155 1   
   164  154  156 1   
   165  163  164 1   
   166  163  168 1   
   167  164  165 1   
   168  164  166 1   
   169  164  167 1   
   170  170  171 1   
   171  170  172 1   
   172  173  174 1   
   173  173  175 1   
   174  176  177 1   
   175  176  178 1   
   176  179  180 1   
   177  179  181 1   
@<TRIPOS>SUBSTRUCTURE
     1 MOL         1 TEMP              0 ****  ****    0 ROOT
