@<TRIPOS>MOLECULE
MOL
  181   177     1     0     0
SMALL
resp


@<TRIPOS>ATOM
      1 C1         10.0900    7.1770   -0.3660 c3        1 MOL     -0.422079
      2 C2          9.0430    6.0770    0.0570 c         1 MOL      0.708192
      3 O1          7.8640    6.4140    0.3630 o         1 MOL     -0.574699
      4 H1         10.2070    7.8970    0.4430 hc        1 MOL      0.112229
      5 H2         11.0510    6.7050   -0.5720 hc        1 MOL      0.112229
      6 H3          9.7380    7.6900   -1.2610 hc        1 MOL      0.112229
      7 N1          9.4540    4.7710    0.2070 n         1 MOL     -0.715225
      8 C3         10.6460    4.1520   -0.4610 c3        1 MOL      0.280554
      9 C4         11.3670    3.0910    0.4410 c         1 MOL      0.383794
     10 O2         12.4970    2.7510    0.1470 o         1 MOL     -0.545319
     11 C5         10.2300    3.4510   -1.7950 c3        1 MOL     -0.294658
     12 C6          8.9600    2.7100   -1.6490 c         1 MOL      0.776781
     13 O3          8.5150    2.2470   -0.5590 o         1 MOL     -0.737947
     14 O4          8.3010    2.3900   -2.6480 o         1 MOL     -0.737947
     15 H4          8.8040    4.1330    0.6450 hn        1 MOL      0.374855
     16 H5         11.3530    4.9310   -0.7480 h1        1 MOL      0.024508
     17 H6         10.9460    2.6960   -2.1310 hc        1 MOL      0.086630
     18 H7         10.1670    4.1960   -2.5940 hc        1 MOL      0.086630
     19 N2         10.7270    2.6290    1.4900 n         1 MOL     -0.390838
     20 C7         11.2930    1.5700    2.3420 c3        1 MOL      0.364952
     21 C8         10.8260    0.0920    2.0570 c         1 MOL      0.321043
     22 O5         11.5280   -0.8360    2.4340 o         1 MOL     -0.571930
     23 C9         10.8750    1.9240    3.8140 c3        1 MOL     -0.409564
     24 H8          9.7920    2.9440    1.6980 hn        1 MOL      0.253145
     25 H9         12.3840    1.5610    2.3650 h1        1 MOL      0.038982
     26 H10        11.1240    1.1440    4.5290 hc        1 MOL      0.102669
     27 H11        11.4370    2.8420    4.0320 hc        1 MOL      0.102669
     28 H12         9.8120    2.1220    3.9110 hc        1 MOL      0.102669
     29 N3          9.7410   -0.1260    1.3280 n         1 MOL     -0.048684
     30 C10         9.2000   -1.4030    1.1110 c3        1 MOL      0.028904
     31 C11         8.9200   -1.7430   -0.3880 c         1 MOL      0.250138
     32 O6          8.7810   -0.8890   -1.2620 o         1 MOL     -0.472107
     33 C12         7.9600   -1.6440    1.9730 c3        1 MOL      0.047214
     34 C13         6.8830   -0.5740    1.9630 c         1 MOL      0.575859
     35 O7          6.1000   -0.5920    2.9510 o         1 MOL     -0.674416
     36 O8          6.7400    0.2420    1.0260 o         1 MOL     -0.674416
     37 H13         9.3180    0.7280    0.9940 hn        1 MOL      0.084795
     38 H14         9.7920   -2.2360    1.4820 h1        1 MOL      0.044681
     39 H15         8.3110   -1.7140    2.9980 hc        1 MOL     -0.003473
     40 H16         7.5310   -2.6270    1.7680 hc        1 MOL     -0.003473
     41 N4          8.8570   -2.9720   -0.7080 n         1 MOL     -0.186753
     42 C14         7.9930   -3.4340   -1.8450 c3        1 MOL     -0.379388
     43 C15         6.5130   -2.9520   -1.7140 c         1 MOL      0.884437
     44 O9          6.2790   -1.9170   -1.1380 o         1 MOL     -0.552534
     45 H17         9.1710   -3.6890   -0.0560 hn        1 MOL      0.242769
     46 H18         8.0110   -4.5200   -1.7420 h1        1 MOL      0.141261
     47 H19         8.4930   -3.1590   -2.7770 h1        1 MOL      0.141261
     48 N5          5.5580   -3.5550   -2.3750 n         1 MOL     -0.787472
     49 C16         4.2140   -3.1110   -2.5090 c3        1 MOL      0.058443
     50 C17         3.2450   -3.7270   -1.5320 c         1 MOL      0.752733
     51 O10         3.4660   -4.7990   -0.9810 o         1 MOL     -0.528504
     52 C18         3.7190   -3.4160   -3.9670 c3        1 MOL     -0.354238
     53 C19         4.5870   -2.8170   -5.0470 c         1 MOL      0.752336
     54 N6          5.1070   -3.6630   -5.9990 n         1 MOL     -0.831740
     55 O11         4.9660   -1.6720   -5.0650 o         1 MOL     -0.583608
     56 H20         5.6720   -4.4180   -2.8900 hn        1 MOL      0.358940
     57 H21         4.1530   -2.0360   -2.3680 h1        1 MOL      0.081141
     58 H22         2.7100   -3.0760   -4.1580 hc        1 MOL      0.104037
     59 H23         3.6920   -4.4960   -4.0340 hc        1 MOL      0.104037
     60 H24         4.9420   -4.6500   -5.8680 hn        1 MOL      0.370901
     61 H25         5.8360   -3.2530   -6.5710 hn        1 MOL      0.370901
     62 N7          2.0410   -3.1410   -1.4290 n         1 MOL     -0.663165
     63 C20         1.1640   -3.4800   -0.3210 c3        1 MOL     -0.037051
     64 C21         1.6170   -2.9580    0.9900 c         1 MOL      0.616492
     65 O12         2.6300   -2.2770    1.0430 o         1 MOL     -0.532000
     66 H26         1.7670   -2.4080   -2.0630 hn        1 MOL      0.377092
     67 H27         1.1150   -4.5310   -0.0440 h1        1 MOL      0.117143
     68 H28         0.1220   -3.2330   -0.5060 h1        1 MOL      0.117143
     69 N8          0.9090   -3.0410    2.1310 n         1 MOL     -0.581842
     70 C22        -0.2170   -4.0600    2.3720 c3        1 MOL     -0.011288
     71 C23        -1.5970   -3.3140    2.4570 c         1 MOL      0.427398
     72 O13        -2.6090   -3.8620    2.1170 o         1 MOL     -0.524641
     73 C24         0.0560   -4.7590    3.7590 c3        1 MOL      0.519622
     74 C25         1.0140   -5.8330    3.5090 c3        1 MOL     -0.374726
     75 O14         0.5300   -3.8730    4.7000 oh        1 MOL     -0.608054
     76 H29         1.2170   -2.3620    2.8120 hn        1 MOL      0.347053
     77 H30        -0.2970   -4.8670    1.6570 h1        1 MOL      0.089927
     78 H31        -0.8620   -5.2150    4.1280 h1        1 MOL     -0.047328
     79 H32        -0.2840   -3.5450    5.0790 ho        1 MOL      0.367525
     80 H33         1.8420   -5.4580    2.9050 hc        1 MOL      0.086131
     81 H34         1.3240   -6.3660    4.4060 hc        1 MOL      0.086131
     82 H35         0.4840   -6.5530    2.8900 hc        1 MOL      0.086131
     83 N9         -1.6900   -2.0230    2.8320 n         1 MOL     -0.424020
     84 C26        -2.8580   -1.1270    2.5890 c3        1 MOL     -0.020682
     85 C27        -3.0670   -0.9870    0.9930 c         1 MOL      0.780091
     86 O15        -2.1180   -0.7470    0.2910 o         1 MOL     -0.640579
     87 C28        -2.6910    0.1710    3.4390 c3        1 MOL     -0.012217
     88 C29        -2.5600   -0.0060    4.9290 c3        1 MOL      0.125974
     89 C30        -3.7990    1.2010    3.2320 c3        1 MOL     -0.557008
     90 C31        -3.7680   -0.5760    5.7030 c3        1 MOL     -0.522669
     91 H36        -0.7780   -1.5950    2.9780 hn        1 MOL      0.251676
     92 H37        -3.7200   -1.6730    2.9900 h1        1 MOL      0.162509
     93 H38        -1.7390    0.5870    3.1140 hc        1 MOL      0.020302
     94 H39        -2.3340    0.9070    5.4740 hc        1 MOL     -0.006068
     95 H40        -1.7750   -0.7550    5.0350 hc        1 MOL     -0.006068
     96 H41        -3.5030    2.0630    3.8240 hc        1 MOL      0.171923
     97 H42        -4.0590    1.3480    2.1810 hc        1 MOL      0.171923
     98 H43        -4.8050    1.0030    3.5980 hc        1 MOL      0.171923
     99 H44        -4.1270   -1.5670    5.4300 hc        1 MOL      0.139123
    100 H45        -3.5200   -0.4470    6.7540 hc        1 MOL      0.139123
    101 H46        -4.6310    0.0570    5.4740 hc        1 MOL      0.139123
    102 N10        -4.2970   -0.9980    0.4450 n         1 MOL     -0.652570
    103 C32        -5.6300   -1.2930    0.8990 c3        1 MOL      0.615820
    104 C33        -6.6990   -0.7060   -0.0560 c         1 MOL      0.392034
    105 O16        -6.3490   -0.3470   -1.1810 o         1 MOL     -0.510173
    106 C34        -5.8250   -2.8070    0.9630 c3        1 MOL     -0.229474
    107 C35        -5.4050   -3.6360   -0.2540 c         1 MOL      0.735129
    108 O17        -4.6260   -3.2630   -1.1840 o         1 MOL     -0.714908
    109 O18        -5.9450   -4.7800   -0.4190 o         1 MOL     -0.714908
    110 H47        -4.2450   -0.8360   -0.5480 hn        1 MOL      0.303139
    111 H48        -5.7300   -0.8950    1.9150 h1        1 MOL     -0.144180
    112 H49        -6.7810   -3.1280    1.3680 hc        1 MOL      0.004070
    113 H50        -5.2320   -3.1700    1.8090 hc        1 MOL      0.004070
    114 N11        -7.9920   -0.7100    0.2740 n         1 MOL     -0.594180
    115 C36        -9.1660   -0.4200   -0.6280 c3        1 MOL      0.506792
    116 C37       -10.4220   -0.0330    0.2670 c         1 MOL      0.327659
    117 O19       -10.6230   -0.6720    1.3040 o         1 MOL     -0.523446
    118 C38        -9.5660   -1.6750   -1.4260 c3        1 MOL     -0.414358
    119 C39       -10.8850   -1.5160   -2.1880 ca        1 MOL      0.226280
    120 C40       -12.1460   -1.8640   -1.6330 ca        1 MOL     -0.214061
    121 C41       -10.9080   -1.0640   -3.5330 ca        1 MOL     -0.214061
    122 C42       -13.3190   -1.7180   -2.3420 ca        1 MOL     -0.066229
    123 C43       -12.1160   -0.9750   -4.3060 ca        1 MOL     -0.066229
    124 C44       -13.3330   -1.3140   -3.7020 ca        1 MOL     -0.194614
    125 H51        -8.2030   -1.1620    1.1550 hn        1 MOL      0.307156
    126 H52        -8.9140    0.3970   -1.3020 h1        1 MOL      0.003784
    127 H53        -9.6580   -2.5010   -0.7180 hc        1 MOL      0.130676
    128 H54        -8.7310   -1.8150   -2.1120 hc        1 MOL      0.130676
    129 H55       -12.1750   -2.1690   -0.5920 ha        1 MOL      0.130043
    130 H56        -9.9690   -0.7500   -3.9540 ha        1 MOL      0.130043
    131 H57       -14.2410   -2.0050   -1.8550 ha        1 MOL      0.093836
    132 H58       -12.1280   -0.6810   -5.3410 ha        1 MOL      0.093836
    133 H59       -14.2280   -1.2260   -4.2960 ha        1 MOL      0.112663
    134 N12       -11.1420    1.0850    0.0080 n         1 MOL     -0.141532
    135 C45       -11.0510    1.9620   -1.1280 c3        1 MOL      0.315895
    136 C46        -9.6750    2.7190   -1.3540 c         1 MOL      0.286485
    137 O20        -9.0320    2.7070   -2.3390 o         1 MOL     -0.485903
    138 C47       -12.1370    2.9860   -0.9750 c3        1 MOL     -0.069013
    139 C48       -13.2040    2.3700    0.0050 c3        1 MOL     -0.204584
    140 C49       -12.3040    1.4190    0.8580 c3        1 MOL      0.093403
    141 H60       -11.2290    1.3920   -2.0380 h1        1 MOL     -0.062028
    142 H61       -11.7310    3.8010   -0.3670 hc        1 MOL      0.040002
    143 H62       -12.5840    3.3700   -1.8850 hc        1 MOL      0.040002
    144 H63       -13.6460    3.0090    0.7730 hc        1 MOL      0.053254
    145 H64       -13.9660    1.6970   -0.3910 hc        1 MOL      0.053254
    146 H65       -12.0890    1.8730    1.8270 h1        1 MOL      0.032798
    147 H66       -12.8230    0.4750    1.0430 h1        1 MOL      0.032798
    148 N13        -9.0520    3.1970   -0.2350 n         1 MOL     -0.394860
    149 C50        -7.7430    3.8760   -0.1870 c3        1 MOL      0.188063
    150 C51        -7.7060    5.2490   -0.9630 c         1 MOL      0.443068
    151 O21        -8.0860    6.2970   -0.4390 o         1 MOL     -0.578871
    152 C52        -7.4590    4.0070    1.3320 c3        1 MOL     -0.080860
    153 C53        -7.3470    2.6650    2.0550 c3        1 MOL      0.098728
    154 C54        -7.0110    2.9050    3.5390 c         1 MOL      0.724596
    155 O22        -7.1170    1.9470    4.3380 o         1 MOL     -0.733325
    156 O23        -6.6830    4.0670    3.9670 o         1 MOL     -0.733325
    157 H67        -9.5930    3.2460    0.6190 hn        1 MOL      0.280231
    158 H68        -6.9430    3.2450   -0.5820 h1        1 MOL      0.077774
    159 H69        -8.2080    4.6390    1.8150 hc        1 MOL      0.005299
    160 H70        -6.4740    4.4510    1.4480 hc        1 MOL      0.005299
    161 H71        -6.5980    2.0420    1.5740 hc        1 MOL     -0.107843
    162 H72        -8.2940    2.1300    1.9800 hc        1 MOL     -0.107843
    163 N14        -7.2480    5.4610   -2.2170 n         1 MOL     -0.328192
    164 C55        -6.4320    4.5580   -3.0620 c3        1 MOL     -0.130130
    165 H73        -7.0260    3.6870   -3.3400 h1        1 MOL      0.073438
    166 H74        -6.1190    5.0860   -3.9630 h1        1 MOL      0.073438
    167 H75        -5.5530    4.2340   -2.5060 h1        1 MOL      0.073438
    168 H76        -7.2420    6.4470   -2.4310 hn        1 MOL      0.261480
    169 Ca1         6.4900    0.7430   -1.4870 Ca        1 MOL      1.767539
    170 O24         5.3520    2.7710   -0.0490 oh        1 MOL     -0.837336
    171 H77         4.6510    2.3820    0.4680 ho        1 MOL      0.411556
    172 H78         5.5350    3.6060    0.3860 ho        1 MOL      0.411556
    173 O25         3.9840    0.0700   -1.1130 oh        1 MOL     -0.837336
    174 H79         3.8400    0.1880   -0.1730 ho        1 MOL      0.411556
    175 H80         3.1250   -0.1940   -1.4520 ho        1 MOL      0.411556
    176 O26         5.1700    2.0280   -3.4440 oh        1 MOL     -0.837336
    177 H81         4.2200    2.1190   -3.3350 ho        1 MOL      0.411556
    178 H82         5.3140    2.1760   -4.3830 ho        1 MOL      0.411556
    179 O27         7.0840   -0.2610   -3.8060 oh        1 MOL     -0.837336
    180 H83         7.8220   -0.3860   -4.4100 ho        1 MOL      0.411556
    181 H84         6.3250   -0.6100   -4.2800 ho        1 MOL      0.411556
@<TRIPOS>BOND
     1    1    2 1   
     2    1    4 1   
     3    1    5 1   
     4    1    6 1   
     5    2    3 2   
     6    2    7 1   
     7    7    8 1   
     8    7   15 1   
     9    8    9 1   
    10    8   11 1   
    11    8   16 1   
    12    9   10 2   
    13    9   19 1   
    14   11   12 1   
    15   11   17 1   
    16   11   18 1   
    17   12   13 1   
    18   12   14 1   
    19   19   20 1   
    20   19   24 1   
    21   20   21 1   
    22   20   23 1   
    23   20   25 1   
    24   21   22 2   
    25   21   29 1   
    26   23   26 1   
    27   23   27 1   
    28   23   28 1   
    29   29   30 1   
    30   29   37 1   
    31   30   31 1   
    32   30   33 1   
    33   30   38 1   
    34   31   32 2   
    35   31   41 1   
    36   33   34 1   
    37   33   39 1   
    38   33   40 1   
    39   34   35 1   
    40   34   36 1   
    41   41   42 1   
    42   41   45 1   
    43   42   43 1   
    44   42   46 1   
    45   42   47 1   
    46   43   44 2   
    47   43   48 1   
    48   48   49 1   
    49   48   56 1   
    50   49   50 1   
    51   49   52 1   
    52   49   57 1   
    53   50   51 2   
    54   50   62 1   
    55   52   53 1   
    56   52   58 1   
    57   52   59 1   
    58   53   54 1   
    59   53   55 2   
    60   54   60 1   
    61   54   61 1   
    62   62   63 1   
    63   62   66 1   
    64   63   64 1   
    65   63   67 1   
    66   63   68 1   
    67   64   65 2   
    68   64   69 1   
    69   69   70 1   
    70   69   76 1   
    71   70   71 1   
    72   70   73 1   
    73   70   77 1   
    74   71   72 2   
    75   71   83 1   
    76   73   74 1   
    77   73   75 1   
    78   73   78 1   
    79   74   80 1   
    80   74   81 1   
    81   74   82 1   
    82   75   79 1   
    83   83   84 1   
    84   83   91 1   
    85   84   85 1   
    86   84   87 1   
    87   84   92 1   
    88   85   86 2   
    89   85  102 1   
    90   87   88 1   
    91   87   89 1   
    92   87   93 1   
    93   88   90 1   
    94   88   94 1   
    95   88   95 1   
    96   89   96 1   
    97   89   97 1   
    98   89   98 1   
    99   90   99 1   
   100   90  100 1   
   101   90  101 1   
   102  102  103 1   
   103  102  110 1   
   104  103  104 1   
   105  103  106 1   
   106  103  111 1   
   107  104  105 2   
   108  104  114 1   
   109  106  107 1   
   110  106  112 1   
   111  106  113 1   
   112  107  108 1   
   113  107  109 1   
   114  114  115 1   
   115  114  125 1   
   116  115  116 1   
   117  115  118 1   
   118  115  126 1   
   119  116  117 2   
   120  116  134 1   
   121  118  119 1   
   122  118  127 1   
   123  118  128 1   
   124  119  120 ar  
   125  119  121 ar  
   126  120  122 ar  
   127  120  129 1   
   128  121  123 ar  
   129  121  130 1   
   130  122  124 ar  
   131  122  131 1   
   132  123  124 ar  
   133  123  132 1   
   134  124  133 1   
   135  134  135 1   
   136  134  140 1   
   137  135  136 1   
   138  135  138 1   
   139  135  141 1   
   140  136  137 2   
   141  136  148 1   
   142  138  139 1   
   143  138  142 1   
   144  138  143 1   
   145  139  140 1   
   146  139  144 1   
   147  139  145 1   
   148  140  146 1   
   149  140  147 1   
   150  148  149 1   
   151  148  157 1   
   152  149  150 1   
   153  149  152 1   
   154  149  158 1   
   155  150  151 2   
   156  150  163 1   
   157  152  153 1   
   158  152  159 1   
   159  152  160 1   
   160  153  154 1   
   161  153  161 1   
   162  153  162 1   
   163  154  155 1   
   164  154  156 1   
   165  163  164 1   
   166  163  168 1   
   167  164  165 1   
   168  164  166 1   
   169  164  167 1   
   170  170  171 1   
   171  170  172 1   
   172  173  174 1   
   173  173  175 1   
   174  176  177 1   
   175  176  178 1   
   176  179  180 1   
   177  179  181 1   
@<TRIPOS>SUBSTRUCTURE
     1 MOL         1 TEMP              0 ****  ****    0 ROOT
