@<TRIPOS>MOLECULE
MOL
  194   186     1     0     0
SMALL
resp


@<TRIPOS>ATOM
      1 C1         -5.2770    0.3970   -3.0410 c3        1 MOL     -0.514874
      2 C2         -6.0700    0.5320   -1.7480 c         1 MOL      0.812145
      3 O1         -5.5910    0.2600   -0.6710 o         1 MOL     -0.620234
      4 H1         -4.9910   -0.6450   -3.1840 hc        1 MOL      0.125214
      5 H2         -5.8920    0.7230   -3.8790 hc        1 MOL      0.125214
      6 H3         -4.3810    1.0150   -2.9840 hc        1 MOL      0.125214
      7 N1         -7.3360    0.9950   -1.8580 n         1 MOL     -0.749034
      8 C3         -8.1030    1.2180   -0.6360 c3        1 MOL      0.476646
      9 C4         -8.7090   -0.0720    0.0350 c         1 MOL      0.153493
     10 O2         -8.7980   -0.0240    1.2860 o         1 MOL     -0.457358
     11 C5         -9.3290    2.1310   -0.8450 c3        1 MOL     -0.347491
     12 C6         -9.0160    3.4850   -1.4820 c         1 MOL      0.723797
     13 O3         -7.8810    3.9860   -1.3180 o         1 MOL     -0.697752
     14 O4         -9.8740    4.0870   -2.1590 o         1 MOL     -0.697752
     15 H4         -7.6750    1.3460   -2.7360 hn        1 MOL      0.373249
     16 H5         -7.5440    1.6890    0.1660 h1        1 MOL      0.012076
     17 H6         -9.8680    2.2460    0.0940 hc        1 MOL      0.074207
     18 H7         -9.9400    1.5870   -1.5620 hc        1 MOL      0.074207
     19 N2         -9.1820   -1.0890   -0.7150 n         1 MOL     -0.073986
     20 C7         -9.9700   -2.2500   -0.2070 c3        1 MOL      0.091472
     21 C8         -9.2530   -3.1210    0.8330 c         1 MOL      0.394775
     22 O5         -9.8940   -3.7430    1.7200 o         1 MOL     -0.526999
     23 C9        -11.4880   -1.8790    0.0830 c3        1 MOL     -0.104071
     24 C10       -12.1410   -0.9550   -1.0240 c3        1 MOL      0.401392
     25 C11       -13.6480   -0.8920   -0.6720 c3        1 MOL     -0.011450
     26 C12       -14.1840    0.1700   -1.6390 c3        1 MOL      0.151884
     27 N3        -15.6430    0.3020   -1.5670 n4        1 MOL     -0.283053
     28 H8         -8.9930   -1.0140   -1.6960 hn        1 MOL      0.155630
     29 H9         -9.9890   -2.8820   -1.1050 h1        1 MOL      0.036623
     30 H10       -11.5590   -1.3600    1.0330 hc        1 MOL      0.029296
     31 H11       -12.0530   -2.7950    0.2360 hc        1 MOL      0.029296
     32 H12       -12.0210   -1.4860   -1.9750 hc        1 MOL     -0.152082
     33 H13       -11.6770    0.0130   -1.2010 hc        1 MOL     -0.152082
     34 H14       -13.7950   -0.5430    0.3480 hc        1 MOL      0.002377
     35 H15       -14.0920   -1.8640   -0.8560 hc        1 MOL      0.002377
     36 H16       -13.9520   -0.0510   -2.6780 hx        1 MOL      0.039440
     37 H17       -13.8110    1.1590   -1.3730 hx        1 MOL      0.039440
     38 H18       -15.9690    0.3420   -0.6160 hn        1 MOL      0.259770
     39 H19       -15.8980    1.2320   -1.8750 hn        1 MOL      0.259770
     40 H20       -16.1750   -0.4050   -2.0630 hn        1 MOL      0.259770
     41 N4         -7.9140   -3.1920    0.6780 n         1 MOL     -0.189958
     42 C13        -7.0130   -3.7220    1.7130 c3        1 MOL      0.008141
     43 C14        -6.0300   -2.5720    2.1550 c         1 MOL      0.526419
     44 O6         -4.9690   -2.8710    2.7060 o         1 MOL     -0.552000
     45 C15        -6.3930   -5.1010    1.3660 c3        1 MOL     -0.246005
     46 C16        -5.7530   -5.2720    0.0070 c         1 MOL      0.702567
     47 O7         -5.5870   -4.2690   -0.7490 o         1 MOL     -0.697694
     48 O8         -5.4370   -6.3720   -0.4410 o         1 MOL     -0.697694
     49 H21        -7.5010   -2.9220   -0.1980 hn        1 MOL      0.131082
     50 H22        -7.6090   -3.8210    2.6200 h1        1 MOL      0.094840
     51 H23        -7.0120   -5.9840    1.5250 hc        1 MOL      0.063025
     52 H24        -5.5750   -5.2510    2.0640 hc        1 MOL      0.063025
     53 N5         -6.4100   -1.3060    1.9610 n         1 MOL     -0.397634
     54 C17        -5.5730   -0.2220    2.2490 c3        1 MOL      0.101572
     55 C18        -5.4990    0.2820    3.6950 c         1 MOL      0.524753
     56 O9         -6.4310    0.0700    4.4800 o         1 MOL     -0.539489
     57 H25        -7.3160   -1.1290    1.5540 hn        1 MOL      0.218897
     58 H26        -5.9560    0.5850    1.6190 h1        1 MOL      0.075222
     59 H27        -4.5500   -0.4210    1.9280 h1        1 MOL      0.075222
     60 N6         -4.4960    1.0520    4.0090 n         1 MOL     -0.584826
     61 C19        -3.3830    1.6420    3.2180 c3        1 MOL      0.420938
     62 C20        -4.0230    2.4890    2.0930 c         1 MOL      0.352166
     63 O10        -4.9210    3.2740    2.3200 o         1 MOL     -0.479291
     64 C21        -2.3610    2.2210    4.1760 c3        1 MOL     -0.475369
     65 C22        -1.0630    2.7030    3.5210 c         1 MOL      0.740517
     66 N7         -0.7590    3.9150    3.7030 n         1 MOL     -0.755683
     67 O11        -0.3470    2.0050    2.8750 o         1 MOL     -0.586136
     68 H28        -4.5970    1.3450    4.9680 hn        1 MOL      0.299610
     69 H29        -2.9710    0.7240    2.7950 h1        1 MOL     -0.018703
     70 H30        -2.1400    1.5320    4.9910 hc        1 MOL      0.133138
     71 H31        -2.8110    3.0620    4.6920 hc        1 MOL      0.133138
     72 H32        -1.4090    4.5850    4.0990 hn        1 MOL      0.359100
     73 H33         0.2010    4.1630    3.5240 hn        1 MOL      0.359100
     74 N8         -3.5260    2.4570    0.8220 n         1 MOL     -0.324320
     75 C23        -2.3960    1.7200    0.2660 c3        1 MOL      0.035279
     76 C24        -1.4330    2.7660   -0.3230 c         1 MOL      0.434163
     77 O12        -1.9230    3.7180   -0.9340 o         1 MOL     -0.473441
     78 H34        -4.0860    2.9870    0.1720 hn        1 MOL      0.306719
     79 H35        -2.7380    1.0770   -0.5450 h1        1 MOL      0.031060
     80 H36        -1.8140    1.0640    0.9190 h1        1 MOL      0.031060
     81 N9         -0.0950    2.6170   -0.0860 n         1 MOL     -0.407178
     82 C25         0.9770    3.4900   -0.6080 c3        1 MOL      0.081539
     83 C26         2.2710    2.6860   -0.4530 c         1 MOL      0.672622
     84 O13         2.3860    1.7080    0.3010 o         1 MOL     -0.606007
     85 C27         1.0430    4.8950    0.0610 c3        1 MOL     -0.113262
     86 C28         2.0790    5.8270   -0.5100 ca        1 MOL     -0.081499
     87 C29         3.3480    5.9710    0.0910 ca        1 MOL     -0.099520
     88 C30         1.8070    6.5790   -1.6620 ca        1 MOL     -0.099520
     89 C31         4.2700    6.8130   -0.5170 ca        1 MOL     -0.209716
     90 C32         2.7390    7.3930   -2.2140 ca        1 MOL     -0.209716
     91 C33         4.0390    7.4760   -1.7080 ca        1 MOL      0.336144
     92 O14         4.9770    8.3490   -2.2670 oh        1 MOL     -0.516054
     93 H37         0.1770    1.7340    0.3270 hn        1 MOL      0.179252
     94 H38         0.7210    3.6530   -1.6490 h1        1 MOL      0.027999
     95 H39         1.1550    4.7240    1.1360 hc        1 MOL      0.096597
     96 H40         0.0220    5.2480   -0.0540 hc        1 MOL      0.096597
     97 H41         3.6550    5.4460    0.9780 ha        1 MOL      0.120180
     98 H42         0.8770    6.4850   -2.2060 ha        1 MOL      0.120180
     99 H43         5.2490    6.8780   -0.0810 ha        1 MOL      0.117441
    100 H44         2.4920    7.8730   -3.1510 ha        1 MOL      0.117441
    101 H45         4.6830    8.7390   -3.0830 ho        1 MOL      0.379126
    102 N10         3.3240    3.1260   -1.1380 n         1 MOL     -0.656591
    103 C34         4.6250    2.3430   -1.2040 c3        1 MOL      0.586974
    104 C35         5.5590    2.8570   -0.0890 c         1 MOL      0.409246
    105 O15         5.5310    3.9970    0.3800 o         1 MOL     -0.435296
    106 C36         5.3120    2.4970   -2.5370 c3        1 MOL      0.252601
    107 C37         4.8090    1.6770   -3.6740 c3        1 MOL      0.279140
    108 C38         5.4460    3.9550   -2.9210 c3        1 MOL     -0.438358
    109 C39         5.0650    0.2470   -3.4410 c3        1 MOL     -0.016369
    110 H46         3.3120    4.0610   -1.5070 hn        1 MOL      0.261453
    111 H47         4.5060    1.2650   -1.0700 h1        1 MOL     -0.220855
    112 H48         6.3390    2.1330   -2.4040 hc        1 MOL     -0.080882
    113 H49         5.3090    2.0250   -4.5790 hc        1 MOL     -0.111549
    114 H50         3.7230    1.8200   -3.7380 hc        1 MOL     -0.111549
    115 H51         5.9600    4.0880   -3.8760 hc        1 MOL      0.094012
    116 H52         4.5080    4.5180   -2.9430 hc        1 MOL      0.094012
    117 H53         6.1220    4.3800   -2.1870 hc        1 MOL      0.094012
    118 H54         5.0480   -0.2960   -4.3800 hc        1 MOL     -0.016269
    119 H55         6.0880    0.0900   -3.1060 hc        1 MOL     -0.016269
    120 H56         4.2790   -0.1600   -2.7880 hc        1 MOL     -0.016269
    121 N11         6.4480    1.9500    0.3230 n         1 MOL     -0.342643
    122 C40         7.1020    2.0480    1.6160 c3        1 MOL     -0.220979
    123 C41         7.2850    0.6680    2.2170 c         1 MOL      0.777691
    124 O16         6.9980   -0.3170    1.5650 o         1 MOL     -0.586911
    125 C42         8.4920    2.6240    1.4800 c3        1 MOL      0.098726
    126 O17         9.2560    1.9310    0.5500 oh        1 MOL     -0.604298
    127 H57         6.4190    1.0890   -0.1870 hn        1 MOL      0.274298
    128 H58         6.4410    2.7160    2.1760 h1        1 MOL      0.115392
    129 H59         9.0500    2.5530    2.4120 h1        1 MOL      0.041296
    130 H60         8.4550    3.6720    1.1680 h1        1 MOL      0.041296
    131 H61        10.1110    2.3370    0.3930 ho        1 MOL      0.433217
    132 N12         7.7800    0.6640    3.4810 n         1 MOL     -0.548750
    133 C43         8.0990   -0.5400    4.2410 c3        1 MOL      0.182437
    134 C44         8.8490   -1.6950    3.4490 c         1 MOL      0.520806
    135 O18         8.3870   -2.8170    3.4150 o         1 MOL     -0.452058
    136 C45         6.8820   -1.1180    4.9910 c3        1 MOL     -0.421578
    137 H62         8.0130    1.5630    3.8750 hn        1 MOL      0.307162
    138 H63         8.7340   -0.2220    5.0720 h1        1 MOL      0.042974
    139 H64         7.3560   -1.8600    5.6190 hc        1 MOL      0.126274
    140 H65         6.3020   -0.3030    5.4230 hc        1 MOL      0.126274
    141 H66         6.1540   -1.6130    4.3310 hc        1 MOL      0.126274
    142 N13         9.8720   -1.2780    2.6850 n         1 MOL     -0.608457
    143 C46        10.7050   -2.0750    1.7020 c3        1 MOL      0.171820
    144 C47         9.9790   -3.0360    0.7280 c         1 MOL      0.520966
    145 O19        10.4700   -4.1170    0.5280 o         1 MOL     -0.461537
    146 C48        11.7940   -2.7520    2.5460 c3        1 MOL     -0.220093
    147 H67        10.1130   -0.2970    2.7590 hn        1 MOL      0.305988
    148 H68        11.1220   -1.3050    1.0560 h1        1 MOL      0.032287
    149 H69        12.7040   -2.8610    1.9530 hc        1 MOL      0.073407
    150 H70        12.0150   -2.2930    3.5050 hc        1 MOL      0.073407
    151 H71        11.5980   -3.7980    2.7870 hc        1 MOL      0.073407
    152 N14         8.7970   -2.6710    0.1370 n         1 MOL     -0.593915
    153 C49         8.0660   -3.5960   -0.7770 c3        1 MOL      0.193454
    154 C50         8.8490   -3.7670   -2.1310 c         1 MOL      0.350977
    155 O20         9.2570   -4.8440   -2.4360 o         1 MOL     -0.505981
    156 C51         6.6040   -3.1200   -0.9850 c3        1 MOL      0.176661
    157 C52         5.7720   -4.0570   -1.8650 c3        1 MOL     -0.029146
    158 C53         4.2680   -3.8030   -1.7970 c         1 MOL      0.554539
    159 O21         3.6840   -3.3600   -2.7780 o         1 MOL     -0.698836
    160 O22         3.6330   -3.9210   -0.7620 o         1 MOL     -0.698836
    161 H72         8.3500   -1.8810    0.5890 hn        1 MOL      0.337655
    162 H73         8.0560   -4.5910   -0.3310 h1        1 MOL      0.073829
    163 H74         6.5920   -2.1360   -1.4660 hc        1 MOL     -0.043964
    164 H75         6.1500   -3.1430    0.0080 hc        1 MOL     -0.043964
    165 H76         5.9560   -5.0420   -1.4500 hc        1 MOL      0.002490
    166 H77         6.0590   -4.0050   -2.9100 hc        1 MOL      0.002490
    167 N15         9.1060   -2.7020   -2.8790 n         1 MOL     -0.211906
    168 C54         9.9120   -2.8390   -4.1710 c3        1 MOL     -0.136381
    169 H78        10.1950   -3.8820   -4.3140 h1        1 MOL      0.089372
    170 H79         9.3050   -2.5100   -5.0150 h1        1 MOL      0.089372
    171 H80        10.8100   -2.2250   -4.1070 h1        1 MOL      0.089372
    172 H81         8.7990   -1.8060   -2.4980 hn        1 MOL      0.170767
    173 Ca1         1.2570   -3.1300   -1.7060 Ca        1 MOL      1.760266
    174 O23         0.7450   -4.2380   -3.9690 oh        1 MOL     -0.836856
    175 H82         1.1830   -4.1390   -4.8110 ho        1 MOL      0.423906
    176 H83        -0.0830   -4.6680   -4.1860 ho        1 MOL      0.423906
    177 O24         1.2310   -1.1950   -3.5170 oh        1 MOL     -0.836856
    178 H84         1.0730   -1.1670   -4.4630 ho        1 MOL      0.423906
    179 H85         1.5500   -0.3210   -3.3000 ho        1 MOL      0.423906
    180 O25        -0.3260   -0.9910   -0.8740 oh        1 MOL     -0.836856
    181 H86        -0.7100   -0.8370   -0.0120 ho        1 MOL      0.423906
    182 H87        -0.4030   -0.1490   -1.3180 ho        1 MOL      0.423906
    183 O26         0.7760   -5.5220   -0.3510 oh        1 MOL     -0.836856
    184 H88         1.0520   -6.2760    0.1630 ho        1 MOL      0.423906
    185 H89        -0.0680   -5.7770   -0.7140 ho        1 MOL      0.423906
    186 O27         1.5660   -2.6300    0.8280 oh        1 MOL     -0.836856
    187 H90         1.4840   -1.7570    1.2130 ho        1 MOL      0.423906
    188 H91         2.4420   -2.9210    1.0850 ho        1 MOL      0.423906
    189 O28         2.8980   -0.6800   -0.8920 oh        1 MOL     -0.836856
    190 H92         2.6400    0.1490   -0.4940 ho        1 MOL      0.423906
    191 H93         3.4010   -1.1300   -0.2150 ho        1 MOL      0.423906
    192 O29        -1.4350   -3.6780   -1.7720 oh        1 MOL     -0.836856
    193 H94        -1.9380   -4.4230   -2.0900 ho        1 MOL      0.423906
    194 H95        -2.0870   -3.1000   -1.3880 ho        1 MOL      0.423906
@<TRIPOS>BOND
     1    1    2 1   
     2    1    4 1   
     3    1    5 1   
     4    1    6 1   
     5    2    3 2   
     6    2    7 1   
     7    7    8 1   
     8    7   15 1   
     9    8    9 1   
    10    8   11 1   
    11    8   16 1   
    12    9   10 2   
    13    9   19 1   
    14   11   12 1   
    15   11   17 1   
    16   11   18 1   
    17   12   13 1   
    18   12   14 1   
    19   19   20 1   
    20   19   28 1   
    21   20   21 1   
    22   20   23 1   
    23   20   29 1   
    24   21   22 2   
    25   21   41 1   
    26   23   24 1   
    27   23   30 1   
    28   23   31 1   
    29   24   25 1   
    30   24   32 1   
    31   24   33 1   
    32   25   26 1   
    33   25   34 1   
    34   25   35 1   
    35   26   27 1   
    36   26   36 1   
    37   26   37 1   
    38   27   38 1   
    39   27   39 1   
    40   27   40 1   
    41   41   42 1   
    42   41   49 1   
    43   42   43 1   
    44   42   45 1   
    45   42   50 1   
    46   43   44 2   
    47   43   53 1   
    48   45   46 1   
    49   45   51 1   
    50   45   52 1   
    51   46   47 1   
    52   46   48 1   
    53   53   54 1   
    54   53   57 1   
    55   54   55 1   
    56   54   58 1   
    57   54   59 1   
    58   55   56 2   
    59   55   60 1   
    60   60   61 1   
    61   60   68 1   
    62   61   62 1   
    63   61   64 1   
    64   61   69 1   
    65   62   63 2   
    66   62   74 1   
    67   64   65 1   
    68   64   70 1   
    69   64   71 1   
    70   65   66 1   
    71   65   67 2   
    72   66   72 1   
    73   66   73 1   
    74   74   75 1   
    75   74   78 1   
    76   75   76 1   
    77   75   79 1   
    78   75   80 1   
    79   76   77 2   
    80   76   81 1   
    81   81   82 1   
    82   81   93 1   
    83   82   83 1   
    84   82   85 1   
    85   82   94 1   
    86   83   84 2   
    87   83  102 1   
    88   85   86 1   
    89   85   95 1   
    90   85   96 1   
    91   86   87 ar  
    92   86   88 ar  
    93   87   89 ar  
    94   87   97 1   
    95   88   90 ar  
    96   88   98 1   
    97   89   91 ar  
    98   89   99 1   
    99   90   91 ar  
   100   90  100 1   
   101   91   92 1   
   102   92  101 1   
   103  102  103 1   
   104  102  110 1   
   105  103  104 1   
   106  103  106 1   
   107  103  111 1   
   108  104  105 2   
   109  104  121 1   
   110  106  107 1   
   111  106  108 1   
   112  106  112 1   
   113  107  109 1   
   114  107  113 1   
   115  107  114 1   
   116  108  115 1   
   117  108  116 1   
   118  108  117 1   
   119  109  118 1   
   120  109  119 1   
   121  109  120 1   
   122  121  122 1   
   123  121  127 1   
   124  122  123 1   
   125  122  125 1   
   126  122  128 1   
   127  123  124 2   
   128  123  132 1   
   129  125  126 1   
   130  125  129 1   
   131  125  130 1   
   132  126  131 1   
   133  132  133 1   
   134  132  137 1   
   135  133  134 1   
   136  133  136 1   
   137  133  138 1   
   138  134  135 2   
   139  134  142 1   
   140  136  139 1   
   141  136  140 1   
   142  136  141 1   
   143  142  143 1   
   144  142  147 1   
   145  143  144 1   
   146  143  146 1   
   147  143  148 1   
   148  144  145 2   
   149  144  152 1   
   150  146  149 1   
   151  146  150 1   
   152  146  151 1   
   153  152  153 1   
   154  152  161 1   
   155  153  154 1   
   156  153  156 1   
   157  153  162 1   
   158  154  155 2   
   159  154  167 1   
   160  156  157 1   
   161  156  163 1   
   162  156  164 1   
   163  157  158 1   
   164  157  165 1   
   165  157  166 1   
   166  158  159 1   
   167  158  160 1   
   168  167  168 1   
   169  167  172 1   
   170  168  169 1   
   171  168  170 1   
   172  168  171 1   
   173  174  175 1   
   174  174  176 1   
   175  177  178 1   
   176  177  179 1   
   177  180  181 1   
   178  180  182 1   
   179  183  184 1   
   180  183  185 1   
   181  186  187 1   
   182  186  188 1   
   183  189  190 1   
   184  189  191 1   
   185  192  193 1   
   186  192  194 1   
@<TRIPOS>SUBSTRUCTURE
     1 MOL         1 TEMP              0 ****  ****    0 ROOT
