@<TRIPOS>MOLECULE
MOL
  181   177     1     0     0
SMALL
resp


@<TRIPOS>ATOM
      1 C1          7.2290    0.6060    6.4710 c3        1 MOL     -0.343295
      2 C2          6.3960    0.7150    5.2100 c         1 MOL      0.770572
      3 O1          5.2830    1.1870    5.2980 o         1 MOL     -0.585174
      4 H1          7.6370   -0.4010    6.5510 hc        1 MOL      0.076151
      5 H2          8.0460    1.3260    6.4300 hc        1 MOL      0.076151
      6 H3          6.6030    0.8140    7.3390 hc        1 MOL      0.076151
      7 N1          6.8460    0.1670    4.0540 n         1 MOL     -0.654179
      8 C3          8.2640   -0.1350    3.7890 c3        1 MOL      0.183879
      9 C4          8.4290   -1.5820    3.3020 c         1 MOL      0.480385
     10 O2          7.8770   -2.5140    3.8900 o         1 MOL     -0.525857
     11 C5          8.8060    0.8920    2.8100 c3        1 MOL     -0.115496
     12 C6          7.9610    1.0760    1.5420 c         1 MOL      0.791828
     13 O3          7.1450    2.0120    1.6570 o         1 MOL     -0.740151
     14 O4          8.1060    0.3100    0.5760 o         1 MOL     -0.740151
     15 H4          6.2540    0.0050    3.2480 hn        1 MOL      0.441593
     16 H5          8.9230   -0.1710    4.6580 h1        1 MOL      0.040145
     17 H6          9.7940    0.5830    2.4490 hc        1 MOL     -0.019175
     18 H7          8.9560    1.8190    3.3560 hc        1 MOL     -0.019175
     19 N2          9.2030   -1.8430    2.2270 n         1 MOL     -0.503461
     20 C7          9.3570   -3.0760    1.4500 c3        1 MOL      0.292544
     21 C8          8.0710   -3.6040    0.7320 c         1 MOL      0.485953
     22 O5          8.1780   -4.5530   -0.0440 o         1 MOL     -0.586732
     23 C9         10.0490   -4.1630    2.2640 c3        1 MOL     -0.473329
     24 H8          9.6220   -1.0130    1.8170 hn        1 MOL      0.264324
     25 H9         10.0350   -2.8940    0.6160 h1        1 MOL      0.034933
     26 H10        11.0840   -3.8290    2.3830 hc        1 MOL      0.126034
     27 H11         9.4930   -4.3320    3.1840 hc        1 MOL      0.126034
     28 H12        10.0950   -5.1110    1.7260 hc        1 MOL      0.126034
     29 N3          6.9120   -2.9230    0.8720 n         1 MOL     -0.146203
     30 C10         5.7570   -3.1370    0.0160 c3        1 MOL     -0.087943
     31 C11         6.0340   -2.6510   -1.3840 c         1 MOL      0.566229
     32 O6          6.6740   -1.6000   -1.6130 o         1 MOL     -0.639348
     33 C12         4.5440   -2.3970    0.5980 c3        1 MOL      0.026696
     34 C13         4.7360   -0.9200    0.7740 c         1 MOL      0.754626
     35 O7          5.1370   -0.4490    1.8530 o         1 MOL     -0.692454
     36 O8          4.5030   -0.1830   -0.1790 o         1 MOL     -0.692454
     37 H13         6.9950   -2.0410    1.3650 hn        1 MOL      0.036966
     38 H14         5.6370   -4.2080   -0.1670 h1        1 MOL      0.059406
     39 H15         4.4870   -2.8170    1.6060 hc        1 MOL     -0.002570
     40 H16         3.5650   -2.6530    0.1980 hc        1 MOL     -0.002570
     41 N4          5.5030   -3.4160   -2.3320 n         1 MOL     -0.261608
     42 C14         5.4540   -2.8480   -3.7270 c3        1 MOL     -0.403503
     43 C15         4.3070   -1.9540   -4.0100 c         1 MOL      0.649691
     44 O9          3.9850   -1.6290   -5.1690 o         1 MOL     -0.540576
     45 H17         5.1190   -4.3190   -2.0850 hn        1 MOL      0.288328
     46 H18         5.3800   -3.7760   -4.2870 h1        1 MOL      0.174177
     47 H19         6.4190   -2.4260   -4.0000 h1        1 MOL      0.174177
     48 N5          3.5680   -1.5340   -2.9040 n         1 MOL     -0.284291
     49 C16         2.4530   -0.5760   -3.1640 c3        1 MOL     -0.104755
     50 C17         2.8280    0.9220   -3.1450 c         1 MOL      0.500699
     51 O10         3.9910    1.2750   -2.8360 o         1 MOL     -0.522370
     52 C18         1.3680   -0.8600   -2.1250 c3        1 MOL     -0.177096
     53 C19         0.6610   -2.2390   -2.2890 c         1 MOL      0.696417
     54 N6          0.5520   -3.0240   -1.2800 n         1 MOL     -0.792825
     55 O11         0.0380   -2.4780   -3.3190 o         1 MOL     -0.550448
     56 H20         3.9140   -1.7460   -1.9840 hn        1 MOL      0.068408
     57 H21         1.9000   -0.7200   -4.0850 h1        1 MOL      0.092493
     58 H22         0.6540   -0.0330   -2.1440 hc        1 MOL      0.028702
     59 H23         1.9370   -0.8590   -1.1950 hc        1 MOL      0.028702
     60 H24         1.0180   -2.6320   -0.4800 hn        1 MOL      0.392364
     61 H25         0.0520   -3.9060   -1.2740 hn        1 MOL      0.392364
     62 N7          1.9130    1.8140   -3.4420 n         1 MOL     -0.285267
     63 C20         2.3030    3.2290   -3.5840 c3        1 MOL     -0.064712
     64 C21         1.1090    4.2090   -3.6580 c         1 MOL      0.437507
     65 O12         0.7930    4.7010   -4.7980 o         1 MOL     -0.526806
     66 H26         0.9920    1.5810   -3.7910 hn        1 MOL      0.324391
     67 H27         2.8300    3.3380   -4.5400 h1        1 MOL      0.085874
     68 H28         3.0040    3.6460   -2.8580 h1        1 MOL      0.085874
     69 N8          0.3850    4.5180   -2.5470 n         1 MOL     -0.321709
     70 C22         0.6300    3.9780   -1.1580 c3        1 MOL     -0.341240
     71 C23        -0.8440    3.6170   -0.5260 c         1 MOL      0.663826
     72 O13        -1.8870    4.1470   -0.8910 o         1 MOL     -0.491141
     73 C24         1.3970    5.0310   -0.3850 c3        1 MOL      0.298301
     74 C25         1.6040    4.7540    1.0530 c3        1 MOL     -0.171068
     75 O14         2.5660    5.3280   -0.9430 oh        1 MOL     -0.611332
     76 H29        -0.3310    5.2230   -2.6540 hn        1 MOL      0.290210
     77 H30         1.2830    3.1060   -1.2130 h1        1 MOL      0.150008
     78 H31         0.8580    5.9780   -0.4300 h1        1 MOL      0.043056
     79 H32         2.5530    6.2910   -0.9040 ho        1 MOL      0.413017
     80 H33         0.6170    4.8180    1.5070 hc        1 MOL      0.049462
     81 H34         1.9980    3.7450    1.1120 hc        1 MOL      0.049462
     82 H35         2.2710    5.4470    1.5660 hc        1 MOL      0.049462
     83 N9         -0.9380    2.6290    0.3500 n         1 MOL     -0.539723
     84 C26        -2.1610    2.3500    1.1150 c3        1 MOL     -0.045934
     85 C27        -2.5540    3.5460    1.9830 c         1 MOL      0.682518
     86 O15        -1.7400    4.0760    2.7280 o         1 MOL     -0.620252
     87 C28        -1.9100    1.0610    1.9560 c3        1 MOL      0.206008
     88 C29        -1.3950   -0.1000    1.1280 c3        1 MOL     -0.359853
     89 C30        -3.0940    0.6520    2.8000 c3        1 MOL     -0.288009
     90 C31        -2.2200   -0.5270   -0.0820 c3        1 MOL      0.002951
     91 H36        -0.0990    2.0840    0.5020 hn        1 MOL      0.331472
     92 H37        -2.9760    2.1390    0.4240 h1        1 MOL      0.109840
     93 H38        -1.1560    1.4040    2.6540 hc        1 MOL     -0.000115
     94 H39        -1.3230   -0.9530    1.8050 hc        1 MOL      0.066751
     95 H40        -0.4330    0.2340    0.7250 hc        1 MOL      0.066751
     96 H41        -3.0580   -0.3650    3.1690 hc        1 MOL      0.083115
     97 H42        -3.3880    1.3450    3.5990 hc        1 MOL      0.083115
     98 H43        -3.9740    0.5990    2.1700 hc        1 MOL      0.083115
     99 H44        -1.7370   -1.3280   -0.6660 hc        1 MOL      0.050554
    100 H45        -3.1680   -0.8790    0.3100 hc        1 MOL      0.050554
    101 H46        -2.4910    0.1970   -0.8430 hc        1 MOL      0.050554
    102 N10        -3.7730    4.0730    1.9880 n         1 MOL     -0.598070
    103 C32        -4.8960    3.8400    1.0110 c3        1 MOL      0.301402
    104 C33        -5.8410    2.8060    1.5410 c         1 MOL      0.649585
    105 O16        -5.8290    2.5010    2.7410 o         1 MOL     -0.593351
    106 C34        -5.5530    5.1670    0.6990 c3        1 MOL     -0.111311
    107 C35        -6.6600    5.1170   -0.3810 c         1 MOL      0.632363
    108 O17        -6.5460    4.2070   -1.2340 o         1 MOL     -0.689900
    109 O18        -7.6950    5.7930   -0.1220 o         1 MOL     -0.689900
    110 H47        -3.8880    4.7920    2.6850 hn        1 MOL      0.314265
    111 H48        -4.5030    3.4550    0.0790 h1        1 MOL     -0.019822
    112 H49        -4.7730    5.8690    0.4010 hc        1 MOL     -0.012912
    113 H50        -5.9740    5.5780    1.6100 hc        1 MOL     -0.012912
    114 N11        -6.6370    2.1300    0.5980 n         1 MOL     -0.848148
    115 C36        -7.5300    1.0630    0.8920 c3        1 MOL      0.702521
    116 C37        -8.1560    0.5010   -0.3770 c         1 MOL      0.135256
    117 O19        -8.5610    1.3250   -1.2040 o         1 MOL     -0.497376
    118 C38        -8.7110    1.5050    1.7800 c3        1 MOL     -0.329716
    119 C39        -9.7560    0.4250    2.0260 ca        1 MOL      0.092683
    120 C40       -10.8780    0.3590    1.0890 ca        1 MOL     -0.196778
    121 C41        -9.5240   -0.6490    2.9340 ca        1 MOL     -0.196778
    122 C42       -11.7800   -0.7090    1.1360 ca        1 MOL     -0.059502
    123 C43       -10.4330   -1.6990    2.9240 ca        1 MOL     -0.059502
    124 C44       -11.5940   -1.6940    2.1250 ca        1 MOL     -0.209259
    125 H51        -6.7000    2.5170   -0.3340 hn        1 MOL      0.419795
    126 H52        -6.8530    0.3220    1.3220 h1        1 MOL     -0.113799
    127 H53        -9.0950    2.4040    1.3040 hc        1 MOL      0.114907
    128 H54        -8.2910    1.7330    2.7580 hc        1 MOL      0.114907
    129 H55       -10.8840    1.1330    0.3320 ha        1 MOL      0.131761
    130 H56        -8.5970   -0.7160    3.4900 ha        1 MOL      0.131761
    131 H57       -12.6150   -0.7910    0.4530 ha        1 MOL      0.091787
    132 H58       -10.2690   -2.5160    3.5980 ha        1 MOL      0.091787
    133 H59       -12.2510   -2.5510    2.1780 ha        1 MOL      0.109059
    134 N12        -8.1600   -0.8080   -0.6820 n         1 MOL      0.265420
    135 C45        -7.6880   -1.9240    0.1080 c3        1 MOL     -0.041644
    136 C46        -6.2030   -2.1300    0.0450 c         1 MOL      0.726871
    137 O20        -5.4520   -1.2620   -0.1740 o         1 MOL     -0.704393
    138 C47        -8.5210   -3.1210   -0.4910 c3        1 MOL     -0.446852
    139 C48        -8.7840   -2.8830   -1.9480 c3        1 MOL      0.300902
    140 C49        -8.8210   -1.3390   -1.9420 c3        1 MOL     -0.241576
    141 H60        -8.0210   -1.6820    1.1210 h1        1 MOL     -0.033806
    142 H61        -8.2350   -4.1260   -0.1730 hc        1 MOL      0.115255
    143 H62        -9.5310   -3.0000   -0.0840 hc        1 MOL      0.115255
    144 H63        -7.9960   -3.3400   -2.5440 hc        1 MOL     -0.032338
    145 H64        -9.7460   -3.2740   -2.2610 hc        1 MOL     -0.032338
    146 H65        -8.2860   -0.9910   -2.8220 h1        1 MOL      0.075271
    147 H66        -9.8690   -1.0390   -1.8730 h1        1 MOL      0.075271
    148 N13        -5.7300   -3.3770    0.0880 n         1 MOL     -0.048492
    149 C50        -4.3230   -3.7110    0.1160 c3        1 MOL      0.058974
    150 C51        -4.0030   -4.7170    1.2360 c         1 MOL      0.529722
    151 O21        -2.9700   -5.4360    1.1150 o         1 MOL     -0.586634
    152 C52        -3.7280   -4.0270   -1.2960 c3        1 MOL     -0.156398
    153 C53        -4.3590   -5.2210   -2.0830 c3        1 MOL     -0.085907
    154 C54        -5.8600   -5.1100   -2.5450 c         1 MOL      0.664596
    155 O22        -6.7580   -5.5070   -1.8120 o         1 MOL     -0.680435
    156 O23        -6.0170   -4.5100   -3.6030 o         1 MOL     -0.680435
    157 H67        -6.3840   -4.1060   -0.1820 hn        1 MOL      0.050754
    158 H68        -3.7400   -2.8290    0.3900 h1        1 MOL      0.034281
    159 H69        -2.6470   -4.1800   -1.2450 hc        1 MOL      0.069108
    160 H70        -3.9990   -3.1610   -1.8850 hc        1 MOL      0.069108
    161 H71        -4.2700   -6.0960   -1.4240 hc        1 MOL     -0.012746
    162 H72        -3.7510   -5.3570   -2.9800 hc        1 MOL     -0.012746
    163 N14        -4.6910   -4.9430    2.4050 n         1 MOL     -0.499874
    164 C55        -5.4760   -4.0070    3.1690 c3        1 MOL      0.149849
    165 H73        -5.9220   -3.2740    2.4970 h1        1 MOL     -0.012910
    166 H74        -6.2650   -4.5410    3.6990 h1        1 MOL     -0.012910
    167 H75        -4.8360   -3.4980    3.8890 h1        1 MOL     -0.012910
    168 H76        -4.2970   -5.6550    3.0070 hn        1 MOL      0.300500
    169 Ca1         6.2700    1.2880   -1.2400 Ca        1 MOL      1.735556
    170 O24         8.4930    2.6230   -1.4590 oh        1 MOL     -0.828898
    171 H77         8.9700    2.6550   -2.2840 ho        1 MOL      0.407861
    172 H78         9.1370    2.8560   -0.7930 ho        1 MOL      0.407861
    173 O25         6.9780    0.5480   -3.6080 oh        1 MOL     -0.828898
    174 H79         7.1360    0.9670   -4.4470 ho        1 MOL      0.407861
    175 H80         7.4800   -0.2730   -3.6520 ho        1 MOL      0.407861
    176 O26         6.1970    3.7410   -2.5940 oh        1 MOL     -0.828898
    177 H81         5.5890    3.9570   -3.2990 ho        1 MOL      0.407861
    178 H82         7.0490    4.0130   -2.9140 ho        1 MOL      0.407861
    179 O27         4.2920    3.0450   -0.1510 oh        1 MOL     -0.828898
    180 H83         3.6760    3.7780   -0.2090 ho        1 MOL      0.407861
    181 H84         4.2960    2.8150    0.7750 ho        1 MOL      0.407861
@<TRIPOS>BOND
     1    1    2 1   
     2    1    4 1   
     3    1    5 1   
     4    1    6 1   
     5    2    3 2   
     6    2    7 1   
     7    7    8 1   
     8    7   15 1   
     9    8    9 1   
    10    8   11 1   
    11    8   16 1   
    12    9   10 2   
    13    9   19 1   
    14   11   12 1   
    15   11   17 1   
    16   11   18 1   
    17   12   13 1   
    18   12   14 1   
    19   19   20 1   
    20   19   24 1   
    21   20   21 1   
    22   20   23 1   
    23   20   25 1   
    24   21   22 2   
    25   21   29 1   
    26   23   26 1   
    27   23   27 1   
    28   23   28 1   
    29   29   30 1   
    30   29   37 1   
    31   30   31 1   
    32   30   33 1   
    33   30   38 1   
    34   31   32 2   
    35   31   41 1   
    36   33   34 1   
    37   33   39 1   
    38   33   40 1   
    39   34   35 1   
    40   34   36 1   
    41   41   42 1   
    42   41   45 1   
    43   42   43 1   
    44   42   46 1   
    45   42   47 1   
    46   43   44 2   
    47   43   48 1   
    48   48   49 1   
    49   48   56 1   
    50   49   50 1   
    51   49   52 1   
    52   49   57 1   
    53   50   51 2   
    54   50   62 1   
    55   52   53 1   
    56   52   58 1   
    57   52   59 1   
    58   53   54 1   
    59   53   55 2   
    60   54   60 1   
    61   54   61 1   
    62   62   63 1   
    63   62   66 1   
    64   63   64 1   
    65   63   67 1   
    66   63   68 1   
    67   64   65 2   
    68   64   69 1   
    69   69   70 1   
    70   69   76 1   
    71   70   71 1   
    72   70   73 1   
    73   70   77 1   
    74   71   72 2   
    75   71   83 1   
    76   73   74 1   
    77   73   75 1   
    78   73   78 1   
    79   74   80 1   
    80   74   81 1   
    81   74   82 1   
    82   75   79 1   
    83   83   84 1   
    84   83   91 1   
    85   84   85 1   
    86   84   87 1   
    87   84   92 1   
    88   85   86 2   
    89   85  102 1   
    90   87   88 1   
    91   87   89 1   
    92   87   93 1   
    93   88   90 1   
    94   88   94 1   
    95   88   95 1   
    96   89   96 1   
    97   89   97 1   
    98   89   98 1   
    99   90   99 1   
   100   90  100 1   
   101   90  101 1   
   102  102  103 1   
   103  102  110 1   
   104  103  104 1   
   105  103  106 1   
   106  103  111 1   
   107  104  105 2   
   108  104  114 1   
   109  106  107 1   
   110  106  112 1   
   111  106  113 1   
   112  107  108 1   
   113  107  109 1   
   114  114  115 1   
   115  114  125 1   
   116  115  116 1   
   117  115  118 1   
   118  115  126 1   
   119  116  117 2   
   120  116  134 1   
   121  118  119 1   
   122  118  127 1   
   123  118  128 1   
   124  119  120 ar  
   125  119  121 ar  
   126  120  122 ar  
   127  120  129 1   
   128  121  123 ar  
   129  121  130 1   
   130  122  124 ar  
   131  122  131 1   
   132  123  124 ar  
   133  123  132 1   
   134  124  133 1   
   135  134  135 1   
   136  134  140 1   
   137  135  136 1   
   138  135  138 1   
   139  135  141 1   
   140  136  137 2   
   141  136  148 1   
   142  138  139 1   
   143  138  142 1   
   144  138  143 1   
   145  139  140 1   
   146  139  144 1   
   147  139  145 1   
   148  140  146 1   
   149  140  147 1   
   150  148  149 1   
   151  148  157 1   
   152  149  150 1   
   153  149  152 1   
   154  149  158 1   
   155  150  151 2   
   156  150  163 1   
   157  152  153 1   
   158  152  159 1   
   159  152  160 1   
   160  153  154 1   
   161  153  161 1   
   162  153  162 1   
   163  154  155 1   
   164  154  156 1   
   165  163  164 1   
   166  163  168 1   
   167  164  165 1   
   168  164  166 1   
   169  164  167 1   
   170  170  171 1   
   171  170  172 1   
   172  173  174 1   
   173  173  175 1   
   174  176  177 1   
   175  176  178 1   
   176  179  180 1   
   177  179  181 1   
@<TRIPOS>SUBSTRUCTURE
     1 MOL         1 TEMP              0 ****  ****    0 ROOT
