@<TRIPOS>MOLECULE
MOL
  181   177     1     0     0
SMALL
resp


@<TRIPOS>ATOM
      1 C1          7.1670   -4.3220    5.1370 c3        1 MOL     -0.286419
      2 C2          6.5950   -3.3710    4.1180 c         1 MOL      0.753200
      3 O1          5.7610   -2.5740    4.4150 o         1 MOL     -0.557425
      4 H1          6.4350   -5.0980    5.3610 hc        1 MOL      0.063010
      5 H2          8.0710   -4.7810    4.7380 hc        1 MOL      0.063010
      6 H3          7.4080   -3.7760    6.0490 hc        1 MOL      0.063010
      7 N1          6.8840   -3.4430    2.8040 n         1 MOL     -0.481611
      8 C3          8.1630   -3.9960    2.3680 c3        1 MOL     -0.000873
      9 C4          7.9480   -4.8680    1.0740 c         1 MOL      0.454699
     10 O2          6.9200   -5.5400    0.9890 o         1 MOL     -0.441087
     11 C5          9.2340   -2.8590    2.2450 c3        1 MOL     -0.052941
     12 C6          8.7190   -1.7260    1.3800 c         1 MOL      0.519110
     13 O3          8.6320   -1.7920    0.1400 o         1 MOL     -0.672045
     14 O4          8.4120   -0.6650    1.9740 o         1 MOL     -0.672045
     15 H4          6.5420   -2.6690    2.2560 hn        1 MOL      0.253374
     16 H5          8.5460   -4.6460    3.1520 h1        1 MOL      0.077205
     17 H6         10.1550   -3.2940    1.8600 hc        1 MOL     -0.002119
     18 H7          9.4500   -2.3690    3.1850 hc        1 MOL     -0.002119
     19 N2          8.8950   -4.9290    0.1120 n         1 MOL     -0.576538
     20 C7          8.5730   -5.4310   -1.1760 c3        1 MOL      0.412729
     21 C8          7.3410   -4.7760   -1.9080 c         1 MOL      0.228928
     22 O5          6.6770   -5.4220   -2.7640 o         1 MOL     -0.485597
     23 C9          8.6380   -7.0070   -1.0940 c3        1 MOL     -0.342101
     24 H8          9.7390   -4.4240    0.3400 hn        1 MOL      0.331389
     25 H9          9.4610   -5.1110   -1.7030 h1        1 MOL     -0.018318
     26 H10         8.6500   -7.4170   -2.1070 hc        1 MOL      0.085258
     27 H11         9.5890   -7.2640   -0.6430 hc        1 MOL      0.085258
     28 H12         7.7810   -7.3810   -0.5360 hc        1 MOL      0.085258
     29 N3          7.0120   -3.4820   -1.5870 n         1 MOL     -0.213345
     30 C10         5.8100   -2.8590   -2.0970 c3        1 MOL      0.282226
     31 C11         6.0890   -1.4450   -2.5160 c         1 MOL      0.404672
     32 O6          7.1040   -0.8530   -2.2600 o         1 MOL     -0.592916
     33 C12         4.6480   -2.9520   -1.0200 c3        1 MOL     -0.363984
     34 C13         4.8750   -2.3730    0.3520 c         1 MOL      0.630269
     35 O7          5.6130   -1.3980    0.4060 o         1 MOL     -0.620522
     36 O8          4.0130   -2.5660    1.2370 o         1 MOL     -0.620522
     37 H13         7.6310   -2.9090   -1.0410 hn        1 MOL      0.152163
     38 H14         5.3960   -3.3040   -3.0020 h1        1 MOL     -0.017902
     39 H15         4.4250   -4.0190   -0.9640 hc        1 MOL      0.124541
     40 H16         3.7440   -2.4530   -1.3710 hc        1 MOL      0.124541
     41 N4          5.0880   -0.8110   -3.2350 n         1 MOL     -0.370006
     42 C14         5.1690    0.6440   -3.5980 c3        1 MOL     -0.113686
     43 C15         4.8850    1.6240   -2.4670 c         1 MOL      0.759903
     44 O9          5.0260    1.2370   -1.3160 o         1 MOL     -0.607615
     45 H17         4.2240   -1.2670   -3.4720 hn        1 MOL      0.290087
     46 H18         4.4810    0.8370   -4.4190 h1        1 MOL      0.076049
     47 H19         6.1270    0.7810   -4.1010 h1        1 MOL      0.076049
     48 N5          4.5270    2.8570   -2.7650 n         1 MOL     -0.760515
     49 C16         4.3370    3.9600   -1.7970 c3        1 MOL      0.305863
     50 C17         2.8380    4.1320   -1.3360 c         1 MOL      0.642728
     51 O10         1.9710    3.6740   -2.0630 o         1 MOL     -0.528526
     52 C18         4.9720    5.1740   -2.5080 c3        1 MOL     -0.359467
     53 C19         4.8940    6.4180   -1.7270 c         1 MOL      0.745697
     54 N6          4.9290    7.5660   -2.3910 n         1 MOL     -0.864880
     55 O11         4.6990    6.5240   -0.5330 o         1 MOL     -0.535228
     56 H20         4.2250    3.0840   -3.7050 hn        1 MOL      0.360271
     57 H21         4.9480    3.7710   -0.9160 h1        1 MOL      0.028653
     58 H22         4.3530    5.4210   -3.3650 hc        1 MOL      0.072632
     59 H23         5.9990    4.9170   -2.7850 hc        1 MOL      0.072632
     60 H24         4.7730    7.3990   -3.3720 hn        1 MOL      0.384944
     61 H25         4.6030    8.4140   -1.9650 hn        1 MOL      0.384944
     62 N7          2.6030    4.7730   -0.1950 n         1 MOL     -0.751692
     63 C20         1.2580    5.1060    0.3310 c3        1 MOL      0.496589
     64 C21         0.7670    6.5310   -0.0600 c         1 MOL      0.477147
     65 O12         1.4680    7.2540   -0.7870 o         1 MOL     -0.525947
     66 H26         3.4570    5.0690    0.2610 hn        1 MOL      0.337006
     67 H27         1.3280    5.0970    1.4150 h1        1 MOL     -0.048586
     68 H28         0.4730    4.3880    0.1030 h1        1 MOL     -0.048586
     69 N8         -0.4730    6.9130    0.3590 n         1 MOL     -0.548361
     70 C22        -1.3030    6.1730    1.3410 c3        1 MOL     -0.060040
     71 C23        -2.1990    5.0970    0.6920 c         1 MOL      0.505923
     72 O13        -2.8760    5.3030   -0.3290 o         1 MOL     -0.501315
     73 C24        -2.0960    7.1610    2.2750 c3        1 MOL      0.426261
     74 C25        -2.6850    6.4020    3.4680 c3        1 MOL     -0.329281
     75 O14        -1.2350    8.1430    2.8060 oh        1 MOL     -0.632136
     76 H29        -0.9390    7.7840    0.1510 hn        1 MOL      0.327964
     77 H30        -0.6530    5.6510    2.0400 h1        1 MOL      0.092016
     78 H31        -2.8910    7.6280    1.6940 h1        1 MOL     -0.015717
     79 H32        -1.6970    8.9720    2.6930 ho        1 MOL      0.379260
     80 H33        -3.6600    5.9530    3.2280 hc        1 MOL      0.088991
     81 H34        -2.0470    5.5630    3.7230 hc        1 MOL      0.088991
     82 H35        -2.7430    7.0980    4.3050 hc        1 MOL      0.088991
     83 N9         -2.1070    3.9030    1.3110 n         1 MOL     -0.326250
     84 C26        -2.6850    2.6700    0.8430 c3        1 MOL     -0.003867
     85 C27        -3.8760    2.2820    1.7730 c         1 MOL      0.641901
     86 O15        -3.7280    2.5660    2.9860 o         1 MOL     -0.616696
     87 C28        -1.7080    1.4850    0.6680 c3        1 MOL      0.085023
     88 C29        -1.1300    0.9310    1.9760 c3        1 MOL      0.031281
     89 C30        -0.7080    1.7930   -0.4670 c3        1 MOL     -0.266754
     90 C31        -0.1300   -0.2280    1.8620 c3        1 MOL      0.030760
     91 H36        -1.6540    3.9220    2.2190 hn        1 MOL      0.196037
     92 H37        -3.0810    2.8700   -0.1550 h1        1 MOL      0.125407
     93 H38        -2.3020    0.6540    0.2690 hc        1 MOL     -0.023957
     94 H39        -1.8690    0.6050    2.7020 hc        1 MOL     -0.029976
     95 H40        -0.6190    1.8360    2.3230 hc        1 MOL     -0.029976
     96 H41        -0.4020    0.8380   -0.8910 hc        1 MOL      0.076802
     97 H42        -1.1240    2.3610   -1.3070 hc        1 MOL      0.076802
     98 H43         0.1620    2.3510   -0.1170 hc        1 MOL      0.076802
     99 H44         0.6230    0.2320    1.2090 hc        1 MOL     -0.000454
    100 H45         0.3210   -0.5910    2.7840 hc        1 MOL     -0.000454
    101 H46        -0.5310   -1.0780    1.3060 hc        1 MOL     -0.000454
    102 N10        -4.9920    1.8060    1.2790 n         1 MOL     -0.596908
    103 C32        -5.3750    1.5700   -0.0560 c3        1 MOL      0.219890
    104 C33        -6.5590    0.5050    0.0030 c         1 MOL      0.722782
    105 O16        -7.2430    0.2390    1.0560 o         1 MOL     -0.532124
    106 C34        -5.7810    2.9000   -0.7560 c3        1 MOL     -0.022291
    107 C35        -6.6410    3.8970    0.0310 c         1 MOL      0.696529
    108 O17        -6.7590    5.0350   -0.4900 o         1 MOL     -0.700304
    109 O18        -7.1600    3.6590    1.1670 o         1 MOL     -0.700304
    110 H47        -5.7110    1.6760    1.9750 hn        1 MOL      0.292158
    111 H48        -4.5860    1.1790   -0.7010 h1        1 MOL     -0.023506
    112 H49        -6.3440    2.6890   -1.6650 hc        1 MOL     -0.047313
    113 H50        -4.9390    3.5310   -1.0140 hc        1 MOL     -0.047313
    114 N11        -6.7660   -0.1510   -1.1590 n         1 MOL     -0.559301
    115 C36        -7.8540   -1.1470   -1.4150 c3        1 MOL      0.586050
    116 C37        -7.3900   -2.1610   -2.5160 c         1 MOL      0.093877
    117 O19        -6.5000   -1.8350   -3.2360 o         1 MOL     -0.429714
    118 C38        -9.1450   -0.4450   -1.9060 c3        1 MOL     -0.082761
    119 C39       -10.1450    0.0270   -0.8520 ca        1 MOL      0.092844
    120 C40       -11.1450   -0.9310   -0.5120 ca        1 MOL     -0.211637
    121 C41        -9.9780    1.2690   -0.1880 ca        1 MOL     -0.211637
    122 C42       -12.0800   -0.5230    0.4440 ca        1 MOL     -0.086071
    123 C43       -11.0060    1.7000    0.7000 ca        1 MOL     -0.086071
    124 C44       -12.0280    0.7460    0.9910 ca        1 MOL     -0.096413
    125 H51        -6.2030    0.0050   -1.9850 hn        1 MOL      0.261223
    126 H52        -8.1260   -1.7090   -0.5150 h1        1 MOL     -0.133182
    127 H53        -9.7250   -1.1620   -2.4840 hc        1 MOL     -0.013113
    128 H54        -8.8590    0.4000   -2.5380 hc        1 MOL     -0.013113
    129 H55       -11.2450   -1.8590   -1.0540 ha        1 MOL      0.141199
    130 H56        -9.1510    1.9430   -0.3560 ha        1 MOL      0.141199
    131 H57       -12.8690   -1.1920    0.7730 ha        1 MOL      0.101973
    132 H58       -11.0230    2.7150    1.0710 ha        1 MOL      0.101973
    133 H59       -12.9010    0.9910    1.5810 ha        1 MOL      0.048944
    134 N12        -7.9140   -3.3970   -2.4620 n         1 MOL      0.079868
    135 C45        -8.7900   -3.9470   -1.4200 c3        1 MOL      0.085890
    136 C46        -7.9480   -4.2430   -0.0740 c         1 MOL      0.728758
    137 O20        -8.5740   -4.4770    0.9250 o         1 MOL     -0.602653
    138 C47        -9.2380   -5.2680   -2.1010 c3        1 MOL     -0.170942
    139 C48        -7.9850   -5.8190   -2.8770 c3        1 MOL     -0.097086
    140 C49        -7.6160   -4.4130   -3.4910 c3        1 MOL     -0.104958
    141 H60        -9.6580   -3.3140   -1.2230 h1        1 MOL     -0.063507
    142 H61        -9.6360   -5.8950   -1.3170 hc        1 MOL      0.038409
    143 H62       -10.0320   -5.1030   -2.8360 hc        1 MOL      0.038409
    144 H63        -7.2410   -6.0670   -2.1180 hc        1 MOL      0.064934
    145 H64        -8.0760   -6.5330   -3.6840 hc        1 MOL      0.064934
    146 H65        -6.5560   -4.3900   -3.7270 h1        1 MOL      0.071987
    147 H66        -8.2160   -4.1520   -4.3630 h1        1 MOL      0.071987
    148 N13        -6.6060   -4.0530   -0.0730 n         1 MOL     -0.464554
    149 C50        -5.8160   -4.0070    1.2010 c3        1 MOL      0.275522
    150 C51        -6.0870   -5.1920    2.1980 c         1 MOL      0.268310
    151 O21        -5.5960   -6.2950    1.8910 o         1 MOL     -0.505806
    152 C52        -4.3170   -3.7630    0.8990 c3        1 MOL     -0.248134
    153 C53        -3.9440   -2.4860    0.1740 c3        1 MOL      0.064392
    154 C54        -3.6330   -2.8390   -1.2900 c         1 MOL      0.624871
    155 O22        -2.9080   -2.0680   -1.9510 o         1 MOL     -0.654606
    156 O23        -4.1470   -3.7590   -1.9270 o         1 MOL     -0.654606
    157 H67        -6.1350   -3.9010   -0.9510 hn        1 MOL      0.207117
    158 H68        -6.0580   -3.0740    1.7080 h1        1 MOL     -0.001627
    159 H69        -3.9070   -4.5930    0.3400 hc        1 MOL      0.083106
    160 H70        -3.7050   -3.7090    1.8040 hc        1 MOL      0.083106
    161 H71        -3.0390   -2.1240    0.6580 hc        1 MOL     -0.033400
    162 H72        -4.7040   -1.7280    0.3290 hc        1 MOL     -0.033400
    163 N14        -6.8640   -5.0180    3.3430 n         1 MOL     -0.272071
    164 C55        -7.5770   -3.9000    4.0430 c3        1 MOL     -0.150273
    165 H73        -8.3820   -3.5300    3.4080 h1        1 MOL      0.085454
    166 H74        -7.9930   -4.2650    4.9810 h1        1 MOL      0.085454
    167 H75        -6.8750   -3.0920    4.2460 h1        1 MOL      0.085454
    168 H76        -6.9790   -5.9210    3.7720 hn        1 MOL      0.243524
    169 Ca1         7.3610    0.5100   -0.1120 Ca        1 MOL      1.785718
    170 O24         8.9930    2.4450    1.2050 oh        1 MOL     -0.823507
    171 H77         9.8660    2.4570    0.8230 ho        1 MOL      0.397934
    172 H78         9.0300    3.0540    1.9380 ho        1 MOL      0.397934
    173 O25         5.9010    1.6300    1.9790 oh        1 MOL     -0.823507
    174 H79         5.8250    2.3050    2.6550 ho        1 MOL      0.397934
    175 H80         5.2790    0.9560    2.2440 ho        1 MOL      0.397934
    176 O26         7.7210    2.7170   -1.6600 oh        1 MOL     -0.823507
    177 H81         8.0330    3.6070   -1.5160 ho        1 MOL      0.397934
    178 H82         8.0710    2.4730   -2.5170 ho        1 MOL      0.397934
    179 O27        10.2740    0.5480   -0.7540 oh        1 MOL     -0.823507
    180 H83        10.6170   -0.1800   -1.2750 ho        1 MOL      0.397934
    181 H84        10.9180    0.6780   -0.0630 ho        1 MOL      0.397934
@<TRIPOS>BOND
     1    1    2 1   
     2    1    4 1   
     3    1    5 1   
     4    1    6 1   
     5    2    3 2   
     6    2    7 1   
     7    7    8 1   
     8    7   15 1   
     9    8    9 1   
    10    8   11 1   
    11    8   16 1   
    12    9   10 2   
    13    9   19 1   
    14   11   12 1   
    15   11   17 1   
    16   11   18 1   
    17   12   13 1   
    18   12   14 1   
    19   19   20 1   
    20   19   24 1   
    21   20   21 1   
    22   20   23 1   
    23   20   25 1   
    24   21   22 2   
    25   21   29 1   
    26   23   26 1   
    27   23   27 1   
    28   23   28 1   
    29   29   30 1   
    30   29   37 1   
    31   30   31 1   
    32   30   33 1   
    33   30   38 1   
    34   31   32 2   
    35   31   41 1   
    36   33   34 1   
    37   33   39 1   
    38   33   40 1   
    39   34   35 1   
    40   34   36 1   
    41   41   42 1   
    42   41   45 1   
    43   42   43 1   
    44   42   46 1   
    45   42   47 1   
    46   43   44 2   
    47   43   48 1   
    48   48   49 1   
    49   48   56 1   
    50   49   50 1   
    51   49   52 1   
    52   49   57 1   
    53   50   51 2   
    54   50   62 1   
    55   52   53 1   
    56   52   58 1   
    57   52   59 1   
    58   53   54 1   
    59   53   55 2   
    60   54   60 1   
    61   54   61 1   
    62   62   63 1   
    63   62   66 1   
    64   63   64 1   
    65   63   67 1   
    66   63   68 1   
    67   64   65 2   
    68   64   69 1   
    69   69   70 1   
    70   69   76 1   
    71   70   71 1   
    72   70   73 1   
    73   70   77 1   
    74   71   72 2   
    75   71   83 1   
    76   73   74 1   
    77   73   75 1   
    78   73   78 1   
    79   74   80 1   
    80   74   81 1   
    81   74   82 1   
    82   75   79 1   
    83   83   84 1   
    84   83   91 1   
    85   84   85 1   
    86   84   87 1   
    87   84   92 1   
    88   85   86 2   
    89   85  102 1   
    90   87   88 1   
    91   87   89 1   
    92   87   93 1   
    93   88   90 1   
    94   88   94 1   
    95   88   95 1   
    96   89   96 1   
    97   89   97 1   
    98   89   98 1   
    99   90   99 1   
   100   90  100 1   
   101   90  101 1   
   102  102  103 1   
   103  102  110 1   
   104  103  104 1   
   105  103  106 1   
   106  103  111 1   
   107  104  105 2   
   108  104  114 1   
   109  106  107 1   
   110  106  112 1   
   111  106  113 1   
   112  107  108 1   
   113  107  109 1   
   114  114  115 1   
   115  114  125 1   
   116  115  116 1   
   117  115  118 1   
   118  115  126 1   
   119  116  117 2   
   120  116  134 1   
   121  118  119 1   
   122  118  127 1   
   123  118  128 1   
   124  119  120 ar  
   125  119  121 ar  
   126  120  122 ar  
   127  120  129 1   
   128  121  123 ar  
   129  121  130 1   
   130  122  124 ar  
   131  122  131 1   
   132  123  124 ar  
   133  123  132 1   
   134  124  133 1   
   135  134  135 1   
   136  134  140 1   
   137  135  136 1   
   138  135  138 1   
   139  135  141 1   
   140  136  137 2   
   141  136  148 1   
   142  138  139 1   
   143  138  142 1   
   144  138  143 1   
   145  139  140 1   
   146  139  144 1   
   147  139  145 1   
   148  140  146 1   
   149  140  147 1   
   150  148  149 1   
   151  148  157 1   
   152  149  150 1   
   153  149  152 1   
   154  149  158 1   
   155  150  151 2   
   156  150  163 1   
   157  152  153 1   
   158  152  159 1   
   159  152  160 1   
   160  153  154 1   
   161  153  161 1   
   162  153  162 1   
   163  154  155 1   
   164  154  156 1   
   165  163  164 1   
   166  163  168 1   
   167  164  165 1   
   168  164  166 1   
   169  164  167 1   
   170  170  171 1   
   171  170  172 1   
   172  173  174 1   
   173  173  175 1   
   174  176  177 1   
   175  176  178 1   
   176  179  180 1   
   177  179  181 1   
@<TRIPOS>SUBSTRUCTURE
     1 MOL         1 TEMP              0 ****  ****    0 ROOT
