@<TRIPOS>MOLECULE
MOL
  178   175     1     0     0
SMALL
resp


@<TRIPOS>ATOM
      1 C1          1.9000   -1.1360    5.1270 c3        1 MOL     -0.281076
      2 C2          3.1220   -0.6260    4.2960 c         1 MOL      0.642226
      3 O1          2.9010    0.1760    3.3830 o         1 MOL     -0.576038
      4 H1          2.1250   -1.0530    6.1900 hc        1 MOL      0.065423
      5 H2          1.0230   -0.5320    4.8930 hc        1 MOL      0.065423
      6 H3          1.7010   -2.1790    4.8790 hc        1 MOL      0.065423
      7 N1          4.3540   -0.9840    4.5290 n         1 MOL     -0.449503
      8 C3          5.5550   -0.7260    3.7150 c3        1 MOL      0.062948
      9 C4          5.7410   -1.8180    2.5550 c         1 MOL      0.588568
     10 O2          6.7920   -1.8470    1.8550 o         1 MOL     -0.465957
     11 C5          6.7350   -0.4690    4.6480 c3        1 MOL     -0.323253
     12 C6          8.0350   -0.0270    4.0370 c         1 MOL      0.761289
     13 O3          8.0580    1.1280    3.5520 o         1 MOL     -0.723305
     14 O4          9.0650   -0.6910    4.0740 o         1 MOL     -0.723305
     15 H4          4.4940   -1.6730    5.2520 hn        1 MOL      0.243298
     16 H5          5.3180    0.1360    3.0940 h1        1 MOL      0.106716
     17 H6          6.8660   -1.4310    5.1460 hc        1 MOL      0.054505
     18 H7          6.4600    0.2560    5.4180 hc        1 MOL      0.054505
     19 N2          4.7860   -2.7880    2.4800 n         1 MOL     -0.530941
     20 C7          4.4900   -3.8340    1.4780 c3        1 MOL      0.158379
     21 C8          4.3910   -3.3910    0.0040 c         1 MOL      0.373982
     22 O5          3.3340   -3.5540   -0.6830 o         1 MOL     -0.497273
     23 C9          5.4730   -5.0270    1.6800 c3        1 MOL     -0.256691
     24 H8          4.1220   -2.7260    3.2420 hn        1 MOL      0.281099
     25 H9          3.5480   -4.3230    1.7320 h1        1 MOL      0.100446
     26 H10         6.4810   -4.7020    1.4270 hc        1 MOL      0.071944
     27 H11         5.3860   -5.4570    2.6750 hc        1 MOL      0.071944
     28 H12         5.2140   -5.8520    1.0140 hc        1 MOL      0.071944
     29 N3          5.5000   -2.7660   -0.5050 n         1 MOL     -0.198116
     30 C10         5.5480   -2.0990   -1.8470 c3        1 MOL      0.242833
     31 C11         6.0970   -0.6560   -1.7640 c         1 MOL      0.517252
     32 O6          6.7300   -0.1840   -2.7440 o         1 MOL     -0.568382
     33 C12         6.5160   -2.9780   -2.6540 c3        1 MOL     -0.282560
     34 C13         6.1910   -4.3970   -3.0000 c         1 MOL      0.687202
     35 O7          5.0300   -4.6960   -3.1620 o         1 MOL     -0.695971
     36 O8          7.1020   -5.2700   -3.1280 o         1 MOL     -0.695971
     37 H13         6.1930   -2.6790    0.2240 hn        1 MOL      0.191973
     38 H14         4.5500   -2.0950   -2.3030 h1        1 MOL     -0.050101
     39 H15         7.4230   -2.9530   -2.0630 hc        1 MOL      0.038760
     40 H16         6.8810   -2.4770   -3.5430 hc        1 MOL      0.038760
     41 N4          6.0000    0.0030   -0.6070 n         1 MOL     -0.277082
     42 C14         6.4420    1.3850   -0.5070 c3        1 MOL      0.067010
     43 C15         5.4690    2.3680   -1.2540 c         1 MOL      0.565298
     44 O9          5.9360    3.3610   -1.8960 o         1 MOL     -0.577563
     45 H17         5.6030   -0.5000    0.1740 hn        1 MOL      0.118217
     46 H18         7.4080    1.4760   -1.0060 h1        1 MOL      0.048379
     47 H19         6.5990    1.6570    0.5350 h1        1 MOL      0.048379
     48 N5          4.1830    2.1410   -1.1050 n         1 MOL     -0.541627
     49 C16         3.1400    2.7190   -1.9450 c3        1 MOL      0.132578
     50 C17         2.7330    4.0710   -1.3110 c         1 MOL      0.557275
     51 O10         2.9690    4.2620   -0.0840 o         1 MOL     -0.463139
     52 C18         2.0520    1.7530   -2.2910 c3        1 MOL     -0.406425
     53 C19         2.5110    0.4840   -3.0360 c         1 MOL      0.907199
     54 N6          2.8720    0.5180   -4.3000 n         1 MOL     -0.796856
     55 O11         2.4470   -0.5910   -2.4430 o         1 MOL     -0.791521
     56 H20         3.8650    1.3480   -0.5670 hn        1 MOL      0.341961
     57 H21         3.7020    2.9530   -2.8510 h1        1 MOL      0.041407
     58 H22         1.4030    2.2460   -3.0120 hc        1 MOL      0.117363
     59 H23         1.4390    1.5170   -1.4290 hc        1 MOL      0.117363
     60 H24         3.1430    1.3460   -4.8120 hn        1 MOL      0.361821
     61 H25         3.0700   -0.4070   -4.6450 hn        1 MOL      0.361821
     62 N7          2.3800    5.0200   -2.1770 n         1 MOL     -0.464012
     63 C20         2.0220    6.4470   -1.9190 c3        1 MOL     -0.083366
     64 C21         0.4840    6.6670   -1.9350 c         1 MOL      0.583316
     65 O12        -0.3150    5.9930   -2.5800 o         1 MOL     -0.539894
     66 H26         2.2660    4.7480   -3.1380 hn        1 MOL      0.290990
     67 H27         2.5000    7.1040   -2.6490 h1        1 MOL      0.096425
     68 H28         2.4580    6.6620   -0.9340 h1        1 MOL      0.096425
     69 N8          0.0980    7.5840   -1.1090 n         1 MOL     -0.516274
     70 C22        -1.2970    7.8830   -0.7570 c3        1 MOL     -0.085959
     71 C23        -2.0900    6.7180   -0.1150 c         1 MOL      0.291221
     72 O13        -3.2420    6.9310    0.3470 o         1 MOL     -0.534431
     73 C24        -1.5350    9.0970    0.1240 c3        1 MOL      0.459655
     74 C25        -1.1390    9.0010    1.5910 c3        1 MOL     -0.362781
     75 O14        -0.7180   10.1380   -0.3380 oh        1 MOL     -0.651274
     76 H29         0.8320    8.0240   -0.5680 hn        1 MOL      0.257187
     77 H30        -1.7740    7.9630   -1.7360 h1        1 MOL      0.141487
     78 H31        -2.5630    9.3720   -0.0920 h1        1 MOL      0.043506
     79 H32         0.1870    9.9130   -0.1030 ho        1 MOL      0.387640
     80 H33        -1.0580    9.9760    2.0820 hc        1 MOL      0.089471
     81 H34        -1.8170    8.3440    2.1330 hc        1 MOL      0.089471
     82 H35        -0.1170    8.6460    1.6980 hc        1 MOL      0.089471
     83 N9         -1.4510    5.5390    0.0020 n         1 MOL      0.013424
     84 C26        -1.9780    4.3320    0.5960 c3        1 MOL     -0.003563
     85 C27        -1.7830    3.1350   -0.3510 c         1 MOL      0.291442
     86 O15        -0.8900    3.1630   -1.1700 o         1 MOL     -0.470932
     87 C28        -1.5800    4.0180    2.0530 c3        1 MOL      0.167288
     88 C29        -0.0620    3.7600    2.2390 c3        1 MOL     -0.275842
     89 C30        -2.2330    5.0460    2.9830 c3        1 MOL     -0.282209
     90 C31         0.7430    5.0350    2.3920 c3        1 MOL      0.006405
     91 H36        -0.6340    5.3480   -0.5710 hn        1 MOL      0.193096
     92 H37        -3.0460    4.5330    0.5540 h1        1 MOL      0.034078
     93 H38        -1.9960    3.0290    2.2640 hc        1 MOL     -0.034028
     94 H39         0.1780    3.1870    1.3400 hc        1 MOL      0.127280
     95 H40         0.1470    3.1720    3.1330 hc        1 MOL      0.127280
     96 H41        -2.0410    4.7770    4.0200 hc        1 MOL      0.068626
     97 H42        -1.7440    6.0110    2.8470 hc        1 MOL      0.068626
     98 H43        -3.3040    5.0760    2.8180 hc        1 MOL      0.068626
     99 H44         0.5210    5.7180    1.5730 hc        1 MOL      0.001194
    100 H45         0.6180    5.5980    3.3160 hc        1 MOL      0.001194
    101 H46         1.8080    4.8580    2.2510 hc        1 MOL      0.001194
    102 N10        -2.5030    2.1450   -0.0810 n         1 MOL     -0.215463
    103 C32        -2.2190    0.8030   -0.5360 c3        1 MOL      0.062424
    104 C33        -3.4720   -0.0780   -0.5740 c         1 MOL      0.539788
    105 O16        -3.4790   -1.3370   -0.3320 o         1 MOL     -0.508093
    106 C34        -1.0950    0.2200    0.2780 c3        1 MOL     -0.023945
    107 C35        -0.3280   -0.8220   -0.4070 c         1 MOL      0.761696
    108 O17         0.6130   -1.4430    0.1750 o         1 MOL     -0.776694
    109 O18        -0.5720   -1.1420   -1.5930 o         1 MOL     -0.776694
    110 H47        -3.3380    2.1840    0.4890 hn        1 MOL      0.200376
    111 H48        -1.7960    0.7650   -1.5400 h1        1 MOL      0.035246
    112 H49        -1.4130   -0.1540    1.2530 hc        1 MOL      0.017707
    113 H50        -0.3780    1.0070    0.4780 hc        1 MOL      0.017707
    114 N11        -4.6640    0.5320   -0.6340 n         1 MOL     -0.470595
    115 C36        -5.9590   -0.1430   -0.8560 c3        1 MOL      0.137464
    116 C37        -6.2600   -1.2360    0.1720 c         1 MOL      0.404053
    117 O19        -6.3080   -0.8810    1.3630 o         1 MOL     -0.505002
    118 C38        -7.1390    0.8470   -0.9880 c3        1 MOL     -0.140479
    119 C39        -8.5590    0.3080   -0.9020 ca        1 MOL     -0.038118
    120 C40        -9.2070   -0.0730   -2.1030 ca        1 MOL     -0.050439
    121 C41        -9.1490   -0.0350    0.3210 ca        1 MOL     -0.050439
    122 C42       -10.4060   -0.8110   -2.1120 ca        1 MOL     -0.232138
    123 C43       -10.3830   -0.6980    0.3170 ca        1 MOL     -0.232138
    124 C44       -11.0740   -1.0670   -0.8410 ca        1 MOL     -0.011273
    125 H51        -4.6490    1.5140   -0.8640 hn        1 MOL      0.237640
    126 H52        -5.8320   -0.6080   -1.8330 h1        1 MOL      0.045170
    127 H53        -7.0740    1.4510   -1.8930 hc        1 MOL      0.080651
    128 H54        -7.1610    1.6080   -0.2050 hc        1 MOL      0.080651
    129 H55        -8.7250    0.1610   -3.0390 ha        1 MOL      0.102633
    130 H56        -8.5940    0.2450    1.2070 ha        1 MOL      0.102633
    131 H57       -10.9770   -1.0650   -2.9870 ha        1 MOL      0.128860
    132 H58       -10.7610   -1.0760    1.2520 ha        1 MOL      0.128860
    133 H59       -12.0220   -1.5860   -0.8540 ha        1 MOL      0.093744
    134 N12        -6.6640   -2.4600   -0.2650 n         1 MOL     -0.002972
    135 C45        -7.0700   -3.5400    0.5700 c3        1 MOL      0.026353
    136 C46        -5.9610   -4.0250    1.5700 c         1 MOL      0.117186
    137 O20        -6.2550   -4.7240    2.5540 o         1 MOL     -0.464692
    138 C47        -7.7070   -4.5930   -0.3020 c3        1 MOL      0.058955
    139 C48        -8.1740   -3.8670   -1.5250 c3        1 MOL      0.044733
    140 C49        -7.0280   -2.8580   -1.6740 c3        1 MOL     -0.113982
    141 H60        -7.8260   -3.2230    1.2880 h1        1 MOL      0.079336
    142 H61        -6.8750   -5.2430   -0.5500 hc        1 MOL      0.009671
    143 H62        -8.5370   -5.1850    0.0860 hc        1 MOL      0.009671
    144 H63        -8.2940   -4.6080   -2.3080 hc        1 MOL     -0.001005
    145 H64        -9.1480   -3.4310   -1.2770 hc        1 MOL     -0.001005
    146 H65        -6.2730   -3.4750   -2.1700 h1        1 MOL      0.049166
    147 H66        -7.2970   -2.0680   -2.3790 h1        1 MOL      0.049166
    148 N13        -4.6410   -3.7680    1.3330 n         1 MOL      0.122953
    149 C50        -3.5540   -4.0280    2.2990 c3        1 MOL     -0.311792
    150 C51        -3.6460   -3.0480    3.4890 c         1 MOL      0.457691
    151 O21        -3.3080   -3.4300    4.6540 o         1 MOL     -0.564715
    152 C52        -2.2430   -3.8580    1.6000 c3        1 MOL      0.112443
    153 C53        -1.9960   -4.8300    0.4410 c3        1 MOL     -0.001676
    154 C54        -0.8130   -4.4750   -0.3950 c         1 MOL      0.710106
    155 O22         0.3240   -4.3670    0.0810 o         1 MOL     -0.793254
    156 O23        -0.9270   -4.2350   -1.6260 o         1 MOL     -0.793254
    157 H67        -4.4230   -3.1440    0.5730 hn        1 MOL      0.059875
    158 H68        -3.6360   -5.0100    2.7580 h1        1 MOL      0.148695
    159 H69        -1.4710   -3.8570    2.3700 hc        1 MOL      0.042644
    160 H70        -2.1080   -2.8610    1.1750 hc        1 MOL      0.042644
    161 H71        -2.9120   -4.9440   -0.1370 hc        1 MOL     -0.034455
    162 H72        -1.8530   -5.7930    0.9120 hc        1 MOL     -0.034455
    163 N14        -4.0630   -1.8200    3.3460 n         1 MOL     -0.088737
    164 C55        -4.2210   -0.7580    4.3570 c3        1 MOL     -0.272248
    165 H73        -3.3670   -0.7720    5.0340 h1        1 MOL      0.110628
    166 H74        -4.2740    0.2110    3.8600 h1        1 MOL      0.110628
    167 H75        -5.1360   -0.9280    4.9230 h1        1 MOL      0.110628
    168 H76        -4.1010   -1.5630    2.3720 hn        1 MOL      0.153674
    169 Ca1         1.2710   -2.8690   -2.0320 Ca        1 MOL      1.866309
    170 O24         1.5770   -5.4110   -3.0800 oh        1 MOL     -0.846757
    171 H77         2.0940   -6.1870   -3.2930 ho        1 MOL      0.404642
    172 H78         0.6770   -5.6770   -3.2110 ho        1 MOL      0.404642
    173 O25         0.1590   -3.0500   -4.5890 oh        1 MOL     -0.846757
    174 H79         0.3040   -2.4930   -5.3590 ho        1 MOL      0.404642
    175 H80        -0.3440   -3.7950   -4.9230 ho        1 MOL      0.404642
    176 O26         3.2300   -2.9510   -3.8900 oh        1 MOL     -0.846757
    177 H81         3.4010   -2.6520   -4.7870 ho        1 MOL      0.404642
    178 H82         3.7350   -3.7550   -3.7920 ho        1 MOL      0.404642
@<TRIPOS>BOND
     1    1    2 1   
     2    1    4 1   
     3    1    5 1   
     4    1    6 1   
     5    2    3 2   
     6    2    7 1   
     7    7    8 1   
     8    7   15 1   
     9    8    9 1   
    10    8   11 1   
    11    8   16 1   
    12    9   10 2   
    13    9   19 1   
    14   11   12 1   
    15   11   17 1   
    16   11   18 1   
    17   12   13 1   
    18   12   14 1   
    19   19   20 1   
    20   19   24 1   
    21   20   21 1   
    22   20   23 1   
    23   20   25 1   
    24   21   22 2   
    25   21   29 1   
    26   23   26 1   
    27   23   27 1   
    28   23   28 1   
    29   29   30 1   
    30   29   37 1   
    31   30   31 1   
    32   30   33 1   
    33   30   38 1   
    34   31   32 2   
    35   31   41 1   
    36   33   34 1   
    37   33   39 1   
    38   33   40 1   
    39   34   35 1   
    40   34   36 1   
    41   41   42 1   
    42   41   45 1   
    43   42   43 1   
    44   42   46 1   
    45   42   47 1   
    46   43   44 2   
    47   43   48 1   
    48   48   49 1   
    49   48   56 1   
    50   49   50 1   
    51   49   52 1   
    52   49   57 1   
    53   50   51 2   
    54   50   62 1   
    55   52   53 1   
    56   52   58 1   
    57   52   59 1   
    58   53   54 1   
    59   53   55 2   
    60   54   60 1   
    61   54   61 1   
    62   62   63 1   
    63   62   66 1   
    64   63   64 1   
    65   63   67 1   
    66   63   68 1   
    67   64   65 2   
    68   64   69 1   
    69   69   70 1   
    70   69   76 1   
    71   70   71 1   
    72   70   73 1   
    73   70   77 1   
    74   71   72 2   
    75   71   83 1   
    76   73   74 1   
    77   73   75 1   
    78   73   78 1   
    79   74   80 1   
    80   74   81 1   
    81   74   82 1   
    82   75   79 1   
    83   83   84 1   
    84   83   91 1   
    85   84   85 1   
    86   84   87 1   
    87   84   92 1   
    88   85   86 2   
    89   85  102 1   
    90   87   88 1   
    91   87   89 1   
    92   87   93 1   
    93   88   90 1   
    94   88   94 1   
    95   88   95 1   
    96   89   96 1   
    97   89   97 1   
    98   89   98 1   
    99   90   99 1   
   100   90  100 1   
   101   90  101 1   
   102  102  103 1   
   103  102  110 1   
   104  103  104 1   
   105  103  106 1   
   106  103  111 1   
   107  104  105 2   
   108  104  114 1   
   109  106  107 1   
   110  106  112 1   
   111  106  113 1   
   112  107  108 1   
   113  107  109 1   
   114  114  115 1   
   115  114  125 1   
   116  115  116 1   
   117  115  118 1   
   118  115  126 1   
   119  116  117 2   
   120  116  134 1   
   121  118  119 1   
   122  118  127 1   
   123  118  128 1   
   124  119  120 ar  
   125  119  121 ar  
   126  120  122 ar  
   127  120  129 1   
   128  121  123 ar  
   129  121  130 1   
   130  122  124 ar  
   131  122  131 1   
   132  123  124 ar  
   133  123  132 1   
   134  124  133 1   
   135  134  135 1   
   136  134  140 1   
   137  135  136 1   
   138  135  138 1   
   139  135  141 1   
   140  136  137 2   
   141  136  148 1   
   142  138  139 1   
   143  138  142 1   
   144  138  143 1   
   145  139  140 1   
   146  139  144 1   
   147  139  145 1   
   148  140  146 1   
   149  140  147 1   
   150  148  149 1   
   151  148  157 1   
   152  149  150 1   
   153  149  152 1   
   154  149  158 1   
   155  150  151 2   
   156  150  163 1   
   157  152  153 1   
   158  152  159 1   
   159  152  160 1   
   160  153  154 1   
   161  153  161 1   
   162  153  162 1   
   163  154  155 1   
   164  154  156 1   
   165  163  164 1   
   166  163  168 1   
   167  164  165 1   
   168  164  166 1   
   169  164  167 1   
   170  170  171 1   
   171  170  172 1   
   172  173  174 1   
   173  173  175 1   
   174  176  177 1   
   175  176  178 1   
@<TRIPOS>SUBSTRUCTURE
     1 MOL         1 TEMP              0 ****  ****    0 ROOT
