@<TRIPOS>MOLECULE
MOL
  188   182     1     0     0
SMALL
resp


@<TRIPOS>ATOM
      1 C1         -6.3200    3.3160   -2.5540 c3        1 MOL     -0.342519
      2 C2         -6.9230    2.6510   -1.2480 c         1 MOL      0.504015
      3 O1         -6.1860    2.0530   -0.4570 o         1 MOL     -0.457040
      4 H1         -6.9620    3.0890   -3.4050 hc        1 MOL      0.088008
      5 H2         -6.2630    4.3960   -2.4200 hc        1 MOL      0.088008
      6 H3         -5.3220    2.9190   -2.7370 hc        1 MOL      0.088008
      7 N1         -8.2580    2.7220   -1.0630 n         1 MOL     -0.456364
      8 C3         -9.0480    2.1340   -0.0590 c3        1 MOL      0.216996
      9 C4         -8.8010    0.6900    0.2920 c         1 MOL      0.248178
     10 O2         -8.6020    0.3690    1.4690 o         1 MOL     -0.410899
     11 C5         -9.0870    3.1160    1.0270 c3        1 MOL     -0.251223
     12 C6        -10.4010    3.1730    1.8150 c         1 MOL      0.691518
     13 O3        -10.4770    3.8890    2.8600 o         1 MOL     -0.684167
     14 O4        -11.4480    2.6010    1.3490 o         1 MOL     -0.684167
     15 H4         -8.7340    3.1960   -1.8260 hn        1 MOL      0.301819
     16 H5        -10.0130    2.2240   -0.5620 h1        1 MOL      0.003813
     17 H6         -9.0300    4.1560    0.7070 hc        1 MOL      0.086743
     18 H7         -8.3090    2.9580    1.7790 hc        1 MOL      0.086743
     19 N2         -8.7060   -0.2080   -0.7510 n         1 MOL     -0.377093
     20 C7         -8.4320   -1.6070   -0.5180 c3        1 MOL      0.125021
     21 C8         -7.0300   -2.0600   -0.9070 c         1 MOL      0.512013
     22 O5         -6.7360   -3.1920   -1.2150 o         1 MOL     -0.575572
     23 C9         -9.5510   -2.3590   -1.2280 c3        1 MOL      0.160595
     24 C10       -10.9060   -2.0760   -0.5040 c3        1 MOL     -0.012862
     25 C11       -11.8290   -3.2360   -0.9100 c3        1 MOL     -0.055545
     26 C12       -13.2530   -3.0830   -0.3300 c3        1 MOL      0.051998
     27 N3        -14.1820   -3.9510   -1.0380 n4        1 MOL     -0.093035
     28 H8         -8.7630    0.2300   -1.6570 hn        1 MOL      0.233244
     29 H9         -8.4930   -1.7370    0.5610 h1        1 MOL      0.076664
     30 H10        -9.3690   -3.4290   -1.2530 hc        1 MOL     -0.049478
     31 H11        -9.5970   -2.0420   -2.2640 hc        1 MOL     -0.049478
     32 H12       -11.3470   -1.1260   -0.8360 hc        1 MOL      0.029715
     33 H13       -10.6860   -2.0870    0.5620 hc        1 MOL      0.029715
     34 H14       -11.4500   -4.2030   -0.5920 hc        1 MOL      0.029798
     35 H15       -11.8640   -3.1520   -1.9950 hc        1 MOL      0.029798
     36 H16       -13.6910   -2.0900   -0.2410 hx        1 MOL      0.070550
     37 H17       -13.1590   -3.4420    0.6890 hx        1 MOL      0.070550
     38 H18       -14.5950   -3.6210   -1.8970 hn        1 MOL      0.184638
     39 H19       -13.7890   -4.8700   -1.1200 hn        1 MOL      0.184638
     40 H20       -15.0090   -4.1090   -0.4690 hn        1 MOL      0.184638
     41 N4         -6.1090   -1.1080   -0.8520 n         1 MOL     -0.457087
     42 C13        -4.6530   -1.3210   -1.3190 c3        1 MOL     -0.003493
     43 C14        -4.0390   -2.4360   -0.3940 c         1 MOL      0.641396
     44 O6         -4.0760   -2.3630    0.8260 o         1 MOL     -0.461907
     45 C15        -3.7960   -0.0400   -1.1080 c3        1 MOL     -0.555024
     46 C16        -2.3000   -0.3530   -1.3420 c         1 MOL      1.015156
     47 O7         -1.6690    0.0740   -2.3350 o         1 MOL     -0.834612
     48 O8         -1.7230   -0.9190   -0.3920 o         1 MOL     -0.834612
     49 H21        -6.4140   -0.2000   -0.5240 hn        1 MOL      0.304710
     50 H22        -4.6700   -1.5940   -2.3710 h1        1 MOL      0.082809
     51 H23        -4.0460    0.3150   -0.1030 hc        1 MOL      0.193004
     52 H24        -4.0920    0.6720   -1.8810 hc        1 MOL      0.193004
     53 N5         -3.3560   -3.4460   -0.9980 n         1 MOL     -0.405097
     54 C17        -2.7660   -4.6000   -0.3050 c3        1 MOL      0.002121
     55 C18        -1.8940   -4.3950    0.9120 c         1 MOL      0.362977
     56 O9         -1.7560   -5.3990    1.6660 o         1 MOL     -0.555617
     57 H25        -3.2030   -3.2920   -1.9910 hn        1 MOL      0.213271
     58 H26        -2.1470   -5.1440   -1.0150 h1        1 MOL      0.072736
     59 H27        -3.5630   -5.2970   -0.0630 h1        1 MOL      0.072736
     60 N6         -1.4090   -3.1970    1.2600 n         1 MOL      0.097628
     61 C19        -0.8930   -2.7420    2.5440 c3        1 MOL     -0.215276
     62 C20        -1.3030   -1.2480    3.0130 c         1 MOL      0.426046
     63 O10        -0.6540   -0.6460    3.9250 o         1 MOL     -0.510713
     64 C21         0.6150   -3.0340    2.5910 c3        1 MOL     -0.071767
     65 C22         1.4700   -2.2900    1.6210 c         1 MOL      0.540688
     66 N7          2.7660   -2.3550    1.9050 n         1 MOL     -0.835098
     67 O11         1.1340   -1.5360    0.7350 o         1 MOL     -0.539948
     68 H28        -1.5950   -2.4680    0.5840 hn        1 MOL      0.055326
     69 H29        -1.3760   -3.4540    3.2170 h1        1 MOL      0.148799
     70 H30         0.7010   -4.0890    2.3100 hc        1 MOL      0.072301
     71 H31         1.0200   -3.0050    3.6090 hc        1 MOL      0.072301
     72 H32         3.1630   -2.9150    2.6440 hn        1 MOL      0.383807
     73 H33         3.3280   -1.8090    1.2670 hn        1 MOL      0.383807
     74 N8         -2.3250   -0.6820    2.3550 n         1 MOL      0.012653
     75 C23        -3.0200    0.5580    2.6570 c3        1 MOL     -0.348109
     76 C24        -2.4070    1.8330    2.0600 c         1 MOL      0.539611
     77 O12        -2.9320    2.9030    2.3140 o         1 MOL     -0.501396
     78 H34        -2.7270   -1.1980    1.5890 hn        1 MOL     -0.006422
     79 H35        -2.9320    0.7450    3.7240 h1        1 MOL      0.178346
     80 H36        -4.0610    0.4260    2.3500 h1        1 MOL      0.178346
     81 N9         -1.4540    1.6510    1.1500 n         1 MOL     -0.366664
     82 C25        -0.6990    2.7360    0.4630 c3        1 MOL     -0.168621
     83 C26         0.5620    2.0060    0.0450 c         1 MOL      0.678607
     84 O13         0.6070    0.8640   -0.3590 o         1 MOL     -0.660484
     85 C27        -1.5380    3.3220   -0.6950 c3        1 MOL     -0.009566
     86 C28        -0.7560    4.0030   -1.8000 ca        1 MOL      0.052912
     87 C29        -0.3100    5.2840   -1.4850 ca        1 MOL     -0.166445
     88 C30        -0.5090    3.3360   -2.9740 ca        1 MOL     -0.166445
     89 C31         0.4650    5.9870   -2.5000 ca        1 MOL     -0.262109
     90 C32         0.2650    4.0180   -3.9590 ca        1 MOL     -0.262109
     91 C33         0.6010    5.3500   -3.7820 ca        1 MOL      0.309555
     92 O14         1.2810    6.0170   -4.7630 oh        1 MOL     -0.448578
     93 H37        -1.1320    0.7220    0.9230 hn        1 MOL      0.311652
     94 H38        -0.5480    3.5030    1.2120 h1        1 MOL      0.110349
     95 H39        -2.2780    3.9780   -0.2330 hc        1 MOL      0.073050
     96 H40        -2.1510    2.5630   -1.1820 hc        1 MOL      0.073050
     97 H41        -0.5660    5.7640   -0.5610 ha        1 MOL      0.159457
     98 H42        -0.8380    2.3140   -3.0520 ha        1 MOL      0.159457
     99 H43         0.9380    6.9330   -2.3030 ha        1 MOL      0.148091
    100 H44         0.4170    3.6380   -4.9600 ha        1 MOL      0.148091
    101 H45         1.3340    5.4900   -5.5590 ho        1 MOL      0.337786
    102 N10         1.6810    2.7100    0.1140 n         1 MOL     -0.425242
    103 C34         3.0520    2.2520   -0.0170 c3        1 MOL     -0.317060
    104 C35         3.3300    1.2540    1.1470 c         1 MOL      0.557583
    105 O15         4.0930    0.3190    0.9880 o         1 MOL     -0.581167
    106 C36         4.0250    3.4570   -0.0790 c3        1 MOL      0.067801
    107 C37         3.6650    4.3820   -1.2980 c3        1 MOL      0.169395
    108 C38         5.4740    2.9260   -0.3750 c3        1 MOL     -0.278128
    109 C39         4.4200    5.7460   -1.3140 c3        1 MOL     -0.382037
    110 H46         1.4660    3.6100    0.5080 hn        1 MOL      0.251740
    111 H47         3.1610    1.7050   -0.9600 h1        1 MOL      0.162180
    112 H48         4.0510    3.8680    0.9230 hc        1 MOL      0.011766
    113 H49         2.6270    4.6840   -1.1250 hc        1 MOL      0.011386
    114 H50         3.7010    3.8670   -2.2550 hc        1 MOL      0.011386
    115 H51         5.6180    2.5510   -1.3870 hc        1 MOL      0.086960
    116 H52         6.0590    3.8500   -0.3610 hc        1 MOL      0.086960
    117 H53         5.7410    2.1940    0.3760 hc        1 MOL      0.086960
    118 H54         4.3270    6.1860   -0.3200 hc        1 MOL      0.103451
    119 H55         5.4560    5.4790   -1.5580 hc        1 MOL      0.103451
    120 H56         4.0030    6.4970   -1.9750 hc        1 MOL      0.103451
    121 N11         2.6890    1.5040    2.2470 n         1 MOL     -0.085029
    122 C40         2.6770    0.5660    3.4020 c3        1 MOL     -0.549694
    123 C41         4.1490    0.2130    3.9380 c         1 MOL      0.550903
    124 O16         4.3830   -0.8810    4.4580 o         1 MOL     -0.486232
    125 C42         1.8810    1.2640    4.5110 c3        1 MOL      0.147664
    126 O17         0.6090    1.6070    4.0180 oh        1 MOL     -0.566340
    127 H57         1.9770    2.2130    2.3090 hn        1 MOL      0.250541
    128 H58         2.0900   -0.3190    3.1870 h1        1 MOL      0.288742
    129 H59         2.3260    2.2320    4.7670 h1        1 MOL      0.067346
    130 H60         1.8340    0.6640    5.4220 h1        1 MOL      0.067346
    131 H61         0.0690    0.8060    3.9760 ho        1 MOL      0.387437
    132 N12         5.0610    1.1310    3.7430 n         1 MOL     -0.329222
    133 C43         6.4700    1.0820    4.0740 c3        1 MOL      0.164044
    134 C44         7.0880   -0.1820    3.4460 c         1 MOL      0.440441
    135 O18         8.0780   -0.7510    3.9120 o         1 MOL     -0.502460
    136 C45         6.5990    1.2080    5.5950 c3        1 MOL     -0.477023
    137 H62         4.7620    2.0210    3.3500 hn        1 MOL      0.234607
    138 H63         6.8590    1.9200    3.4950 h1        1 MOL      0.077482
    139 H64         7.6410    1.4510    5.8010 hc        1 MOL      0.142498
    140 H65         6.0730    2.0900    5.9690 hc        1 MOL      0.142498
    141 H66         6.0730    0.3570    6.0150 hc        1 MOL      0.142498
    142 N13         6.5790   -0.5550    2.2530 n         1 MOL     -0.562651
    143 C46         7.1850   -1.6460    1.4630 c3        1 MOL      0.688346
    144 C47         7.8950   -1.1590    0.1650 c         1 MOL      0.312179
    145 O19         7.4640   -0.2700   -0.5380 o         1 MOL     -0.524935
    146 C48         6.2220   -2.7720    1.2250 c3        1 MOL     -0.262977
    147 H67         5.8010   -0.0460    1.8400 hn        1 MOL      0.272845
    148 H68         7.9850   -2.0500    2.0770 h1        1 MOL     -0.075059
    149 H69         6.1690   -3.2520    2.1960 hc        1 MOL      0.042317
    150 H70         5.2330   -2.4580    0.8910 hc        1 MOL      0.042317
    151 H71         6.6570   -3.4650    0.5040 hc        1 MOL      0.042317
    152 N14         9.1000   -1.7570   -0.1770 n         1 MOL     -0.536714
    153 C49        10.0200   -1.3330   -1.2520 c3        1 MOL      0.359387
    154 C50        10.3370    0.2170   -1.1870 c         1 MOL      0.282640
    155 O20        10.4750    0.9340   -2.2230 o         1 MOL     -0.472599
    156 C51         9.3960   -1.8160   -2.5830 c3        1 MOL     -0.045977
    157 C52         9.7490   -3.2330   -3.0070 c3        1 MOL     -0.224120
    158 C53        11.0940   -3.2710   -3.7920 c         1 MOL      0.716372
    159 O21        12.1260   -3.3610   -3.1450 o         1 MOL     -0.664788
    160 O22        11.0600   -3.1830   -5.0370 o         1 MOL     -0.664788
    161 H72         9.3150   -2.5930    0.3500 hn        1 MOL      0.273259
    162 H73        11.0000   -1.7920   -1.0880 h1        1 MOL      0.007004
    163 H74         9.8970   -1.1980   -3.3250 hc        1 MOL      0.037194
    164 H75         8.3180   -1.7140   -2.4620 hc        1 MOL      0.037194
    165 H76         8.9030   -3.5170   -3.6310 hc        1 MOL      0.001253
    166 H77         9.7080   -3.8470   -2.1050 hc        1 MOL      0.001253
    167 N15        10.5020    0.7590    0.0340 n         1 MOL     -0.179755
    168 C54        10.8860    2.1440    0.3240 c3        1 MOL     -0.025774
    169 H78        11.5980    2.1580    1.1510 h1        1 MOL      0.045513
    170 H79        11.3470    2.5860   -0.5580 h1        1 MOL      0.045513
    171 H80        10.0010    2.7170    0.5980 h1        1 MOL      0.045513
    172 H81        10.5050    0.1290    0.8280 hn        1 MOL      0.173155
    173 Ca1         0.4810   -1.4060   -1.7620 Ca        1 MOL      1.770369
    174 O23         1.0670   -2.4550   -3.9850 oh        1 MOL     -0.797804
    175 H82         1.7840   -3.0660   -4.1380 ho        1 MOL      0.405791
    176 H83         1.0830   -1.8770   -4.7380 ho        1 MOL      0.405791
    177 O24         3.0220   -2.3150   -1.3960 oh        1 MOL     -0.797804
    178 H84         3.3130   -3.1150   -0.9640 ho        1 MOL      0.405791
    179 H85         3.7920   -1.7430   -1.3890 ho        1 MOL      0.405791
    180 O25         1.9230    0.3890   -3.0790 oh        1 MOL     -0.797804
    181 H86         2.7560    0.0930   -3.4350 ho        1 MOL      0.405791
    182 H87         1.6850    1.1470   -3.6080 ho        1 MOL      0.405791
    183 O26         0.2650   -4.0450   -1.4060 oh        1 MOL     -0.797804
    184 H88         0.1610   -4.6920   -2.0920 ho        1 MOL      0.405791
    185 H89         0.5080   -4.5500   -0.6270 ho        1 MOL      0.405791
    186 O27        -2.0240   -2.8820   -3.2700 oh        1 MOL     -0.797804
    187 H90        -2.5750   -3.6440   -3.3930 ho        1 MOL      0.405791
    188 H91        -1.8380   -2.5600   -4.1510 ho        1 MOL      0.405791
@<TRIPOS>BOND
     1    1    2 1   
     2    1    4 1   
     3    1    5 1   
     4    1    6 1   
     5    2    3 2   
     6    2    7 1   
     7    7    8 1   
     8    7   15 1   
     9    8    9 1   
    10    8   11 1   
    11    8   16 1   
    12    9   10 2   
    13    9   19 1   
    14   11   12 1   
    15   11   17 1   
    16   11   18 1   
    17   12   13 1   
    18   12   14 1   
    19   19   20 1   
    20   19   28 1   
    21   20   21 1   
    22   20   23 1   
    23   20   29 1   
    24   21   22 2   
    25   21   41 1   
    26   23   24 1   
    27   23   30 1   
    28   23   31 1   
    29   24   25 1   
    30   24   32 1   
    31   24   33 1   
    32   25   26 1   
    33   25   34 1   
    34   25   35 1   
    35   26   27 1   
    36   26   36 1   
    37   26   37 1   
    38   27   38 1   
    39   27   39 1   
    40   27   40 1   
    41   41   42 1   
    42   41   49 1   
    43   42   43 1   
    44   42   45 1   
    45   42   50 1   
    46   43   44 2   
    47   43   53 1   
    48   45   46 1   
    49   45   51 1   
    50   45   52 1   
    51   46   47 1   
    52   46   48 1   
    53   53   54 1   
    54   53   57 1   
    55   54   55 1   
    56   54   58 1   
    57   54   59 1   
    58   55   56 2   
    59   55   60 1   
    60   60   61 1   
    61   60   68 1   
    62   61   62 1   
    63   61   64 1   
    64   61   69 1   
    65   62   63 2   
    66   62   74 1   
    67   64   65 1   
    68   64   70 1   
    69   64   71 1   
    70   65   66 1   
    71   65   67 2   
    72   66   72 1   
    73   66   73 1   
    74   74   75 1   
    75   74   78 1   
    76   75   76 1   
    77   75   79 1   
    78   75   80 1   
    79   76   77 2   
    80   76   81 1   
    81   81   82 1   
    82   81   93 1   
    83   82   83 1   
    84   82   85 1   
    85   82   94 1   
    86   83   84 2   
    87   83  102 1   
    88   85   86 1   
    89   85   95 1   
    90   85   96 1   
    91   86   87 ar  
    92   86   88 ar  
    93   87   89 ar  
    94   87   97 1   
    95   88   90 ar  
    96   88   98 1   
    97   89   91 ar  
    98   89   99 1   
    99   90   91 ar  
   100   90  100 1   
   101   91   92 1   
   102   92  101 1   
   103  102  103 1   
   104  102  110 1   
   105  103  104 1   
   106  103  106 1   
   107  103  111 1   
   108  104  105 2   
   109  104  121 1   
   110  106  107 1   
   111  106  108 1   
   112  106  112 1   
   113  107  109 1   
   114  107  113 1   
   115  107  114 1   
   116  108  115 1   
   117  108  116 1   
   118  108  117 1   
   119  109  118 1   
   120  109  119 1   
   121  109  120 1   
   122  121  122 1   
   123  121  127 1   
   124  122  123 1   
   125  122  125 1   
   126  122  128 1   
   127  123  124 2   
   128  123  132 1   
   129  125  126 1   
   130  125  129 1   
   131  125  130 1   
   132  126  131 1   
   133  132  133 1   
   134  132  137 1   
   135  133  134 1   
   136  133  136 1   
   137  133  138 1   
   138  134  135 2   
   139  134  142 1   
   140  136  139 1   
   141  136  140 1   
   142  136  141 1   
   143  142  143 1   
   144  142  147 1   
   145  143  144 1   
   146  143  146 1   
   147  143  148 1   
   148  144  145 2   
   149  144  152 1   
   150  146  149 1   
   151  146  150 1   
   152  146  151 1   
   153  152  153 1   
   154  152  161 1   
   155  153  154 1   
   156  153  156 1   
   157  153  162 1   
   158  154  155 2   
   159  154  167 1   
   160  156  157 1   
   161  156  163 1   
   162  156  164 1   
   163  157  158 1   
   164  157  165 1   
   165  157  166 1   
   166  158  159 1   
   167  158  160 1   
   168  167  168 1   
   169  167  172 1   
   170  168  169 1   
   171  168  170 1   
   172  168  171 1   
   173  174  175 1   
   174  174  176 1   
   175  177  178 1   
   176  177  179 1   
   177  180  181 1   
   178  180  182 1   
   179  183  184 1   
   180  183  185 1   
   181  186  187 1   
   182  186  188 1   
@<TRIPOS>SUBSTRUCTURE
     1 MOL         1 TEMP              0 ****  ****    0 ROOT
