@<TRIPOS>MOLECULE
MOL
  184   179     1     0     0
SMALL
resp


@<TRIPOS>ATOM
      1 C1          0.6590    4.4580    3.3490 c3        1 MOL     -0.173546
      2 C2         -0.8090    4.4120    3.1910 c         1 MOL      0.551883
      3 O1         -1.5270    3.4400    3.4910 o         1 MOL     -0.557461
      4 H1          1.0170    5.4630    3.1250 hc        1 MOL      0.039021
      5 H2          0.9230    4.2000    4.3750 hc        1 MOL      0.039021
      6 H3          1.1210    3.7470    2.6640 hc        1 MOL      0.039021
      7 N1         -1.4240    5.5510    2.8020 n         1 MOL     -0.507728
      8 C3         -2.8660    5.8790    2.7810 c3        1 MOL      0.262637
      9 C4         -3.5010    5.3850    1.3910 c         1 MOL      0.464419
     10 O2         -2.7770    5.2300    0.4150 o         1 MOL     -0.387043
     11 C5         -3.0640    7.3880    2.8200 c3        1 MOL     -0.465288
     12 C6         -2.4660    8.1560    1.6290 c         1 MOL      0.829137
     13 O3         -3.0880    9.1680    1.1510 o         1 MOL     -0.747837
     14 O4         -1.2970    7.9040    1.3040 o         1 MOL     -0.747837
     15 H4         -0.7840    6.3260    2.6710 hn        1 MOL      0.322252
     16 H5         -3.3760    5.2950    3.5420 h1        1 MOL     -0.001546
     17 H6         -2.5590    7.8860    3.6490 hc        1 MOL      0.070922
     18 H7         -4.1390    7.5770    2.8990 hc        1 MOL      0.070922
     19 N2         -4.8040    5.0770    1.4170 n         1 MOL     -0.609045
     20 C7         -5.4250    4.2560    0.3730 c3        1 MOL      0.286884
     21 C8         -4.6790    2.9800    0.1690 c         1 MOL      0.571462
     22 O5         -4.3550    2.3030    1.1960 o         1 MOL     -0.526291
     23 C9         -6.9390    4.2120    0.6510 c3        1 MOL     -0.345525
     24 H8         -5.3420    5.2640    2.2540 hn        1 MOL      0.348184
     25 H9         -5.3670    4.7650   -0.5920 h1        1 MOL      0.036925
     26 H10        -7.4640    3.6770   -0.1400 hc        1 MOL      0.080717
     27 H11        -7.0750    3.7720    1.6390 hc        1 MOL      0.080717
     28 H12        -7.2540    5.2590    0.6370 hc        1 MOL      0.080717
     29 N3         -4.3570    2.6020   -1.0990 n         1 MOL     -0.766946
     30 C10        -3.4950    1.4160   -1.2880 c3        1 MOL      0.153414
     31 C11        -3.8860    0.5790   -2.5350 c         1 MOL      0.317776
     32 O6         -3.1040   -0.2060   -3.0940 o         1 MOL     -0.467081
     33 C12        -2.0650    1.9080   -1.3530 c3        1 MOL     -0.107985
     34 C13        -1.8230    2.7850   -2.6370 c         1 MOL      0.712117
     35 O7         -0.6340    3.0180   -2.9650 o         1 MOL     -0.716050
     36 O8         -2.7410    3.3140   -3.2830 o         1 MOL     -0.716050
     37 H13        -4.6000    3.1850   -1.8920 hn        1 MOL      0.344687
     38 H14        -3.5970    0.7370   -0.4420 h1        1 MOL      0.098516
     39 H15        -1.4640    1.0170   -1.5020 hc        1 MOL      0.071232
     40 H16        -1.8050    2.4640   -0.4490 hc        1 MOL      0.071232
     41 N4         -5.0680    0.8940   -3.1360 n         1 MOL     -0.162169
     42 C14        -5.6350    0.1560   -4.2980 c3        1 MOL     -0.152047
     43 C15        -6.2960   -1.1700   -3.8940 c         1 MOL      0.543937
     44 O9         -7.5030   -1.2490   -3.6950 o         1 MOL     -0.544835
     45 H17        -5.6310    1.6210   -2.7300 hn        1 MOL      0.239342
     46 H18        -4.8360   -0.0960   -5.0050 h1        1 MOL      0.077339
     47 H19        -6.3810    0.7940   -4.7660 h1        1 MOL      0.077339
     48 N5         -5.4350   -2.2170   -3.6260 n         1 MOL     -0.477043
     49 C16        -5.8320   -3.4380   -2.8970 c3        1 MOL      0.251027
     50 C17        -5.6960   -3.3420   -1.3490 c         1 MOL      0.496700
     51 O10        -4.8630   -2.6100   -0.9030 o         1 MOL     -0.442268
     52 C18        -5.0780   -4.6170   -3.5240 c3        1 MOL     -0.379310
     53 C19        -5.1410   -4.7300   -5.0340 c         1 MOL      0.766019
     54 N6         -4.0570   -4.5970   -5.7350 n         1 MOL     -0.867480
     55 O11        -6.1920   -4.9710   -5.6220 o         1 MOL     -0.589247
     56 H20        -4.4560   -2.0180   -3.7860 hn        1 MOL      0.276428
     57 H21        -6.8520   -3.7380   -3.1180 h1        1 MOL      0.001393
     58 H22        -5.5690   -5.5070   -3.1080 hc        1 MOL      0.098245
     59 H23        -4.0580   -4.4840   -3.1750 hc        1 MOL      0.098245
     60 H24        -3.2050   -4.2100   -5.3520 hn        1 MOL      0.384215
     61 H25        -4.0840   -4.7030   -6.7480 hn        1 MOL      0.384215
     62 N7         -6.4970   -4.0620   -0.5920 n         1 MOL     -0.457607
     63 C20        -6.3900   -4.0090    0.8690 c3        1 MOL     -0.163080
     64 C21        -5.1670   -4.7950    1.3760 c         1 MOL      0.648446
     65 O12        -4.4010   -5.3420    0.6280 o         1 MOL     -0.515958
     66 H26        -7.1780   -4.6050   -1.0970 hn        1 MOL      0.310507
     67 H27        -7.1950   -4.5500    1.3770 h1        1 MOL      0.103520
     68 H28        -6.3780   -2.9420    1.1020 h1        1 MOL      0.103520
     69 N8         -4.8660   -4.7340    2.6490 n         1 MOL     -0.452727
     70 C22        -3.7500   -5.4540    3.2520 c3        1 MOL     -0.216515
     71 C23        -2.3780   -4.6950    3.2960 c         1 MOL      0.657463
     72 O13        -1.3560   -5.2870    3.5840 o         1 MOL     -0.604849
     73 C24        -4.0660   -5.8610    4.6410 c3        1 MOL      0.500995
     74 C25        -3.9810   -4.8590    5.8390 c3        1 MOL     -0.350170
     75 O14        -5.3100   -6.5160    4.8120 oh        1 MOL     -0.638987
     76 H29        -5.4670   -4.2810    3.3230 hn        1 MOL      0.244243
     77 H30        -3.6080   -6.3800    2.6820 h1        1 MOL      0.131193
     78 H31        -3.3840   -6.6820    4.8810 h1        1 MOL      0.015084
     79 H32        -6.0420   -5.9010    4.7040 ho        1 MOL      0.360603
     80 H33        -4.2570   -3.8910    5.4260 hc        1 MOL      0.080595
     81 H34        -4.5950   -5.1600    6.6950 hc        1 MOL      0.080595
     82 H35        -3.0000   -4.6350    6.2680 hc        1 MOL      0.080595
     83 N9         -2.3910   -3.3660    3.0970 n         1 MOL     -0.438251
     84 C26        -1.1200   -2.5320    3.2870 c3        1 MOL     -0.054946
     85 C27        -0.9890   -1.6460    2.0870 c         1 MOL      0.709424
     86 O15        -1.9310   -1.0300    1.6490 o         1 MOL     -0.544895
     87 C28        -1.0800   -1.7940    4.6230 c3        1 MOL      0.055845
     88 C29        -0.6780   -2.7630    5.6730 c3        1 MOL      0.009456
     89 C30        -0.0960   -0.5910    4.6200 c3        1 MOL     -0.053195
     90 C31        -0.7840   -2.2200    7.0990 c3        1 MOL     -0.168711
     91 H36        -3.2920   -2.9330    2.9750 hn        1 MOL      0.269406
     92 H37        -0.1850   -3.1030    3.2790 h1        1 MOL      0.090463
     93 H38        -2.0730   -1.3940    4.7980 hc        1 MOL      0.036164
     94 H39         0.3760   -3.0020    5.5070 hc        1 MOL      0.007519
     95 H40        -1.2050   -3.7210    5.6090 hc        1 MOL      0.007519
     96 H41         0.8680   -1.0950    4.5290 hc        1 MOL      0.018300
     97 H42        -0.1080    0.1020    3.7810 hc        1 MOL      0.018300
     98 H43        -0.1530   -0.0020    5.5300 hc        1 MOL      0.018300
     99 H44        -0.1150   -1.3840    7.2680 hc        1 MOL      0.037684
    100 H45        -1.8370   -1.9950    7.2480 hc        1 MOL      0.037684
    101 H46        -0.4580   -2.9420    7.8570 hc        1 MOL      0.037684
    102 N10         0.1890   -1.6190    1.5210 n         1 MOL     -0.621800
    103 C32         0.5740   -0.9200    0.2620 c3        1 MOL      0.101973
    104 C33         1.5200   -1.7650   -0.5560 c         1 MOL      0.598317
    105 O16         1.2130   -1.9370   -1.7380 o         1 MOL     -0.525154
    106 C34         1.2640    0.4000    0.7420 c3        1 MOL     -0.180616
    107 C35         1.4370    1.4680   -0.3530 c         1 MOL      0.566880
    108 O17         1.4640    1.1880   -1.5330 o         1 MOL     -0.692880
    109 O18         1.5640    2.6450   -0.0240 o         1 MOL     -0.692880
    110 H47         0.7560   -2.3960    1.8350 hn        1 MOL      0.253040
    111 H48        -0.3710   -0.8730   -0.2830 h1        1 MOL      0.117916
    112 H49         2.2080    0.2240    1.2610 hc        1 MOL      0.075442
    113 H50         0.5690    0.8840    1.4340 hc        1 MOL      0.075442
    114 N11         2.6040   -2.3390   -0.0190 n         1 MOL     -0.577318
    115 C36         3.7740   -2.7670   -0.8010 c3        1 MOL      0.286974
    116 C37         5.0710   -2.4370   -0.0510 c         1 MOL      0.319298
    117 O19         5.2160   -2.3850    1.1930 o         1 MOL     -0.525096
    118 C38         3.5370   -4.3070   -1.1280 c3        1 MOL     -0.203651
    119 C39         4.5550   -5.0720   -1.9580 ca        1 MOL      0.132387
    120 C40         4.5350   -5.0310   -3.3970 ca        1 MOL     -0.230094
    121 C41         5.7840   -5.5520   -1.3410 ca        1 MOL     -0.230094
    122 C42         5.5070   -5.5990   -4.1660 ca        1 MOL     -0.053177
    123 C43         6.8000   -6.0640   -2.1500 ca        1 MOL     -0.053177
    124 C44         6.6720   -6.2320   -3.5810 ca        1 MOL     -0.178420
    125 H51         2.7220   -2.2900    0.9850 hn        1 MOL      0.300910
    126 H52         3.8250   -2.1960   -1.7190 h1        1 MOL      0.059004
    127 H53         2.5270   -4.3870   -1.5390 hc        1 MOL      0.089870
    128 H54         3.4750   -4.7270   -0.1230 hc        1 MOL      0.089870
    129 H55         3.6180   -4.6200   -3.7900 ha        1 MOL      0.144826
    130 H56         6.0200   -5.4340   -0.2950 ha        1 MOL      0.144826
    131 H57         5.4780   -5.6730   -5.2420 ha        1 MOL      0.095769
    132 H58         7.7040   -6.4960   -1.7360 ha        1 MOL      0.095769
    133 H59         7.4220   -6.8090   -4.0870 ha        1 MOL      0.125173
    134 N12         6.1680   -2.1940   -0.7800 n         1 MOL     -0.136069
    135 C45         7.5210   -2.2420   -0.2230 c3        1 MOL      0.244261
    136 C46         7.8430   -1.0060    0.6720 c         1 MOL      0.273081
    137 O20         8.8350   -1.0440    1.3520 o         1 MOL     -0.508516
    138 C47         8.4650   -2.3100   -1.4300 c3        1 MOL     -0.332540
    139 C48         7.6370   -2.5390   -2.7160 c3        1 MOL      0.097762
    140 C49         6.2720   -2.0730   -2.2580 c3        1 MOL     -0.217548
    141 H60         7.7050   -3.1240    0.3970 h1        1 MOL      0.041814
    142 H61         8.9990   -1.3830   -1.6300 hc        1 MOL      0.102217
    143 H62         9.1200   -3.1790   -1.3630 hc        1 MOL      0.102217
    144 H63         7.9580   -2.0110   -3.6110 hc        1 MOL      0.017587
    145 H64         7.5860   -3.5810   -3.0430 hc        1 MOL      0.017587
    146 H65         6.2410   -0.9920   -2.3750 h1        1 MOL      0.106340
    147 H66         5.4220   -2.4490   -2.8300 h1        1 MOL      0.106340
    148 N13         6.9380   -0.0590    0.6750 n         1 MOL     -0.139574
    149 C50         6.9840    1.1630    1.5350 c3        1 MOL     -0.253933
    150 C51         6.8080    0.8620    3.0350 c         1 MOL      0.502919
    151 O21         7.3310    1.5560    3.9180 o         1 MOL     -0.542673
    152 C52         6.0070    2.2430    1.0620 c3        1 MOL     -0.002696
    153 C53         6.2830    2.7120   -0.4210 c3        1 MOL     -0.072576
    154 C54         5.1900    3.6380   -1.0520 c         1 MOL      0.724418
    155 O22         5.1250    4.8020   -0.6200 o         1 MOL     -0.747455
    156 O23         4.4450    3.1880   -1.9680 o         1 MOL     -0.747455
    157 H67         6.0790   -0.2570    0.1810 hn        1 MOL      0.240412
    158 H68         7.9920    1.5500    1.3850 h1        1 MOL      0.155912
    159 H69         6.1450    3.0900    1.7270 hc        1 MOL      0.055520
    160 H70         4.9630    1.9380    1.1530 hc        1 MOL      0.055520
    161 H71         6.4390    1.9580   -1.1900 hc        1 MOL     -0.005099
    162 H72         7.1870    3.3260   -0.3720 hc        1 MOL     -0.005099
    163 N14         6.1490   -0.2570    3.3190 n         1 MOL     -0.143587
    164 C55         5.8280   -0.6160    4.7160 c3        1 MOL     -0.330188
    165 H73         5.4160   -1.6250    4.7460 h1        1 MOL      0.122844
    166 H74         6.7340   -0.5750    5.3200 h1        1 MOL      0.122844
    167 H75         5.0950    0.0860    5.1130 h1        1 MOL      0.122844
    168 H76         5.7650   -0.7940    2.5650 hn        1 MOL      0.187000
    169 Ca1         1.7160    3.8920   -2.2640 Ca        1 MOL      1.812370
    170 O24         2.6800    5.8490   -0.6580 oh        1 MOL     -0.850849
    171 H77         3.5880    5.6300   -0.4520 ho        1 MOL      0.412630
    172 H78         2.6710    6.8100   -0.7450 ho        1 MOL      0.412630
    173 O25         1.8650    2.6950   -4.7720 oh        1 MOL     -0.850849
    174 H79         1.8620    1.7470   -4.8700 ho        1 MOL      0.412630
    175 H80         1.3840    3.0190   -5.5350 ho        1 MOL      0.412630
    176 O26         3.2020    5.3980   -4.1980 oh        1 MOL     -0.850849
    177 H81         3.2700    5.0460   -5.0870 ho        1 MOL      0.412630
    178 H82         3.8710    6.0820   -4.1680 ho        1 MOL      0.412630
    179 O27         0.3020    5.9340   -3.3940 oh        1 MOL     -0.850849
    180 H83        -0.1870    6.3500   -2.6860 ho        1 MOL      0.412630
    181 H84         0.0560    6.4390   -4.1730 ho        1 MOL      0.412630
    182 O28        -0.2540    4.7020   -0.4340 oh        1 MOL     -0.850849
    183 H85         0.2340    4.0430    0.0500 ho        1 MOL      0.412630
    184 H86        -1.1200    4.7140   -0.0140 ho        1 MOL      0.412630
@<TRIPOS>BOND
     1    1    2 1   
     2    1    4 1   
     3    1    5 1   
     4    1    6 1   
     5    2    3 2   
     6    2    7 1   
     7    7    8 1   
     8    7   15 1   
     9    8    9 1   
    10    8   11 1   
    11    8   16 1   
    12    9   10 2   
    13    9   19 1   
    14   11   12 1   
    15   11   17 1   
    16   11   18 1   
    17   12   13 1   
    18   12   14 1   
    19   19   20 1   
    20   19   24 1   
    21   20   21 1   
    22   20   23 1   
    23   20   25 1   
    24   21   22 2   
    25   21   29 1   
    26   23   26 1   
    27   23   27 1   
    28   23   28 1   
    29   29   30 1   
    30   29   37 1   
    31   30   31 1   
    32   30   33 1   
    33   30   38 1   
    34   31   32 2   
    35   31   41 1   
    36   33   34 1   
    37   33   39 1   
    38   33   40 1   
    39   34   35 1   
    40   34   36 1   
    41   41   42 1   
    42   41   45 1   
    43   42   43 1   
    44   42   46 1   
    45   42   47 1   
    46   43   44 2   
    47   43   48 1   
    48   48   49 1   
    49   48   56 1   
    50   49   50 1   
    51   49   52 1   
    52   49   57 1   
    53   50   51 2   
    54   50   62 1   
    55   52   53 1   
    56   52   58 1   
    57   52   59 1   
    58   53   54 1   
    59   53   55 2   
    60   54   60 1   
    61   54   61 1   
    62   62   63 1   
    63   62   66 1   
    64   63   64 1   
    65   63   67 1   
    66   63   68 1   
    67   64   65 2   
    68   64   69 1   
    69   69   70 1   
    70   69   76 1   
    71   70   71 1   
    72   70   73 1   
    73   70   77 1   
    74   71   72 2   
    75   71   83 1   
    76   73   74 1   
    77   73   75 1   
    78   73   78 1   
    79   74   80 1   
    80   74   81 1   
    81   74   82 1   
    82   75   79 1   
    83   83   84 1   
    84   83   91 1   
    85   84   85 1   
    86   84   87 1   
    87   84   92 1   
    88   85   86 2   
    89   85  102 1   
    90   87   88 1   
    91   87   89 1   
    92   87   93 1   
    93   88   90 1   
    94   88   94 1   
    95   88   95 1   
    96   89   96 1   
    97   89   97 1   
    98   89   98 1   
    99   90   99 1   
   100   90  100 1   
   101   90  101 1   
   102  102  103 1   
   103  102  110 1   
   104  103  104 1   
   105  103  106 1   
   106  103  111 1   
   107  104  105 2   
   108  104  114 1   
   109  106  107 1   
   110  106  112 1   
   111  106  113 1   
   112  107  108 1   
   113  107  109 1   
   114  114  115 1   
   115  114  125 1   
   116  115  116 1   
   117  115  118 1   
   118  115  126 1   
   119  116  117 2   
   120  116  134 1   
   121  118  119 1   
   122  118  127 1   
   123  118  128 1   
   124  119  120 ar  
   125  119  121 ar  
   126  120  122 ar  
   127  120  129 1   
   128  121  123 ar  
   129  121  130 1   
   130  122  124 ar  
   131  122  131 1   
   132  123  124 ar  
   133  123  132 1   
   134  124  133 1   
   135  134  135 1   
   136  134  140 1   
   137  135  136 1   
   138  135  138 1   
   139  135  141 1   
   140  136  137 2   
   141  136  148 1   
   142  138  139 1   
   143  138  142 1   
   144  138  143 1   
   145  139  140 1   
   146  139  144 1   
   147  139  145 1   
   148  140  146 1   
   149  140  147 1   
   150  148  149 1   
   151  148  157 1   
   152  149  150 1   
   153  149  152 1   
   154  149  158 1   
   155  150  151 2   
   156  150  163 1   
   157  152  153 1   
   158  152  159 1   
   159  152  160 1   
   160  153  154 1   
   161  153  161 1   
   162  153  162 1   
   163  154  155 1   
   164  154  156 1   
   165  163  164 1   
   166  163  168 1   
   167  164  165 1   
   168  164  166 1   
   169  164  167 1   
   170  170  171 1   
   171  170  172 1   
   172  173  174 1   
   173  173  175 1   
   174  176  177 1   
   175  176  178 1   
   176  179  180 1   
   177  179  181 1   
   178  182  183 1   
   179  182  184 1   
@<TRIPOS>SUBSTRUCTURE
     1 MOL         1 TEMP              0 ****  ****    0 ROOT
