@<TRIPOS>MOLECULE
MOL
  181   177     1     0     0
SMALL
resp


@<TRIPOS>ATOM
      1 C1          5.2910   -1.9780    4.2090 c3        1 MOL     -0.372980
      2 C2          6.6520   -1.4690    3.6890 c         1 MOL      0.696666
      3 O1          6.9140   -0.2730    3.7290 o         1 MOL     -0.592891
      4 H1          5.4510   -2.6330    5.0650 hc        1 MOL      0.094413
      5 H2          4.6760   -1.1300    4.5110 hc        1 MOL      0.094413
      6 H3          4.7840   -2.5300    3.4180 hc        1 MOL      0.094413
      7 N1          7.5570   -2.3410    3.1960 n         1 MOL     -0.555813
      8 C3          8.6990   -1.8610    2.3640 c3        1 MOL      0.074070
      9 C4          8.3620   -1.5530    0.9200 c         1 MOL      0.673000
     10 O2          8.0580   -2.4100    0.0900 o         1 MOL     -0.559635
     11 C5          9.8320   -2.8790    2.4780 c3        1 MOL     -0.238964
     12 C6         11.1890   -2.6820    1.7940 c         1 MOL      0.723504
     13 O3         11.2920   -1.7470    0.9570 o         1 MOL     -0.731235
     14 O4         12.0800   -3.5010    2.0520 o         1 MOL     -0.731235
     15 H4          7.2840   -3.3070    3.2040 hn        1 MOL      0.294285
     16 H5          9.1260   -0.9590    2.8040 h1        1 MOL      0.064427
     17 H6          9.4950   -3.8520    2.1360 hc        1 MOL      0.038248
     18 H7          9.9940   -3.0410    3.5430 hc        1 MOL      0.038248
     19 N2          8.3260   -0.2170    0.6120 n         1 MOL     -0.580423
     20 C7          7.7870    0.3480   -0.6370 c3        1 MOL      0.248152
     21 C8          6.2980    0.0040   -0.8430 c         1 MOL      0.576840
     22 O5          5.5470    0.2830   -0.0070 o         1 MOL     -0.538879
     23 C9          7.9900    1.8820   -0.6530 c3        1 MOL     -0.304258
     24 H8          8.4460    0.3680    1.4300 hn        1 MOL      0.303646
     25 H9          8.3140   -0.1460   -1.4490 h1        1 MOL      0.024619
     26 H10         7.9260    2.2500   -1.6740 hc        1 MOL      0.070524
     27 H11         7.1410    2.2330   -0.0630 hc        1 MOL      0.070524
     28 H12         8.9730    2.0640   -0.2380 hc        1 MOL      0.070524
     29 N3          5.9040   -0.6240   -1.9230 n         1 MOL     -0.455204
     30 C10         4.5320   -1.0700   -2.2840 c3        1 MOL      0.103360
     31 C11         3.9830   -0.2220   -3.4680 c         1 MOL      0.366624
     32 O6          2.9630   -0.5790   -4.0520 o         1 MOL     -0.505958
     33 C12         4.6280   -2.5810   -2.6280 c3        1 MOL      0.100433
     34 C13         3.3230   -3.3620   -2.3810 c         1 MOL      0.572831
     35 O7          2.6390   -2.9420   -1.4130 o         1 MOL     -0.691987
     36 O8          3.0880   -4.3640   -3.0420 o         1 MOL     -0.691987
     37 H13         6.6370   -0.8270   -2.5950 hn        1 MOL      0.186681
     38 H14         3.9490   -0.9120   -1.3660 h1        1 MOL      0.086911
     39 H15         5.5150   -2.9980   -2.1630 hc        1 MOL     -0.016854
     40 H16         4.8440   -2.6600   -3.6960 hc        1 MOL     -0.016854
     41 N4          4.5800    0.9090   -3.7970 n         1 MOL     -0.171234
     42 C14         4.2620    1.7220   -5.0070 c3        1 MOL     -0.335221
     43 C15         3.1960    2.8030   -4.9020 c         1 MOL      0.698965
     44 O9          2.9840    3.5340   -5.8380 o         1 MOL     -0.579081
     45 H17         5.3140    1.2380   -3.1880 hn        1 MOL      0.192109
     46 H18         3.9110    1.0250   -5.7770 h1        1 MOL      0.133767
     47 H19         5.2530    2.0990   -5.2380 h1        1 MOL      0.133767
     48 N5          2.4980    2.8290   -3.7390 n         1 MOL     -0.554084
     49 C16         1.1960    3.5610   -3.5400 c3        1 MOL      0.255552
     50 C17         1.4120    4.5760   -2.3560 c         1 MOL      0.406618
     51 O10         1.4120    4.0880   -1.2300 o         1 MOL     -0.463930
     52 C18        -0.0330    2.7140   -3.2780 c3        1 MOL     -0.118482
     53 C19        -1.3670    3.5500   -3.3850 c         1 MOL      0.586446
     54 N6         -2.4640    2.8770   -3.2860 n         1 MOL     -0.629762
     55 O11        -1.3700    4.7610   -3.5580 o         1 MOL     -0.542585
     56 H20         2.7290    2.2960   -2.9170 hn        1 MOL      0.282360
     57 H21         0.8800    4.0780   -4.4490 h1        1 MOL     -0.005241
     58 H22        -0.0320    2.2410   -2.2950 hc        1 MOL      0.061832
     59 H23        -0.0100    1.9210   -4.0140 hc        1 MOL      0.061832
     60 H24        -2.4180    1.8980   -3.5280 hn        1 MOL      0.299148
     61 H25        -3.2970    3.3510   -3.6310 hn        1 MOL      0.299148
     62 N7          1.5670    5.8860   -2.5510 n         1 MOL     -0.377736
     63 C20         1.8670    6.7350   -1.4110 c3        1 MOL     -0.041877
     64 C21         0.6420    6.9150   -0.4790 c         1 MOL      0.442143
     65 O12        -0.4950    7.1750   -0.9400 o         1 MOL     -0.441511
     66 H26         1.5750    6.2020   -3.5080 hn        1 MOL      0.287444
     67 H27         2.2950    7.6780   -1.7620 h1        1 MOL      0.075295
     68 H28         2.7310    6.3930   -0.8510 h1        1 MOL      0.075295
     69 N8          0.8680    6.8170    0.8500 n         1 MOL     -0.336316
     70 C22        -0.1450    7.1260    1.8500 c3        1 MOL     -0.160342
     71 C23        -1.0700    5.9820    2.2710 c         1 MOL      0.461596
     72 O13        -2.2930    6.1870    2.5120 o         1 MOL     -0.571900
     73 C24         0.3710    7.8850    3.1370 c3        1 MOL      0.429364
     74 C25         1.3390    7.0530    3.9700 c3        1 MOL     -0.297999
     75 O14         1.0490    9.0880    2.8540 oh        1 MOL     -0.650896
     76 H29         1.8400    6.8140    1.1460 hn        1 MOL      0.226776
     77 H30        -0.7620    7.8910    1.3850 h1        1 MOL      0.107577
     78 H31        -0.4650    8.1690    3.7740 h1        1 MOL      0.043232
     79 H32         1.8890    8.9590    2.4070 ho        1 MOL      0.387692
     80 H33         0.7350    6.3970    4.6030 hc        1 MOL      0.070990
     81 H34         1.9430    6.3210    3.4330 hc        1 MOL      0.070990
     82 H35         2.0770    7.6660    4.4750 hc        1 MOL      0.070990
     83 N9         -0.5700    4.7110    2.3290 n         1 MOL     -0.000499
     84 C26        -1.3830    3.4860    2.5270 c3        1 MOL     -0.126102
     85 C27        -1.0830    2.4010    1.5170 c         1 MOL      0.502818
     86 O15        -0.0470    2.4820    0.8790 o         1 MOL     -0.459763
     87 C28        -1.3010    2.9910    4.0230 c3        1 MOL      0.104847
     88 C29         0.0840    2.7240    4.6470 c3        1 MOL     -0.189825
     89 C30        -1.8440    4.0650    4.9260 c3        1 MOL     -0.226475
     90 C31         0.7760    1.5470    3.9640 c3        1 MOL     -0.005191
     91 H36         0.3520    4.6630    1.9230 hn        1 MOL      0.123498
     92 H37        -2.4320    3.7060    2.3510 h1        1 MOL      0.091378
     93 H38        -1.8650    2.0750    4.2060 hc        1 MOL      0.026767
     94 H39        -0.0970    2.5090    5.7010 hc        1 MOL      0.048015
     95 H40         0.7570    3.5830    4.5900 hc        1 MOL      0.048015
     96 H41        -1.8790    3.7260    5.9610 hc        1 MOL      0.047264
     97 H42        -1.2720    4.9810    5.0480 hc        1 MOL      0.047264
     98 H43        -2.8900    4.2160    4.6610 hc        1 MOL      0.047264
     99 H44         1.1660    1.8230    2.9780 hc        1 MOL      0.029625
    100 H45         1.5960    1.2850    4.6270 hc        1 MOL      0.029625
    101 H46         0.1030    0.7000    3.9140 hc        1 MOL      0.029625
    102 N10        -1.9550    1.4100    1.3290 n         1 MOL     -0.461138
    103 C32        -1.7710    0.3940    0.3000 c3        1 MOL     -0.032886
    104 C33        -3.1820   -0.0370   -0.3430 c         1 MOL      0.752459
    105 O16        -3.3090   -1.0940   -1.0030 o         1 MOL     -0.635705
    106 C34        -1.0260   -0.7720    1.0610 c3        1 MOL      0.292083
    107 C35        -0.6040   -1.9460    0.2280 c         1 MOL      0.668479
    108 O17        -0.1440   -1.7580   -0.9570 o         1 MOL     -0.750950
    109 O18        -0.4890   -3.0650    0.7080 o         1 MOL     -0.750950
    110 H47        -2.6680    1.2630    2.0280 hn        1 MOL      0.267489
    111 H48        -1.1480    0.7270   -0.5350 h1        1 MOL      0.027173
    112 H49        -1.7820   -1.2400    1.7010 hc        1 MOL     -0.078071
    113 H50        -0.2550   -0.4130    1.7340 hc        1 MOL     -0.078071
    114 N11        -4.1920    0.8490   -0.1660 n         1 MOL     -0.666790
    115 C36        -5.5090    0.6000   -0.5950 c3        1 MOL      0.396032
    116 C37        -6.1680   -0.5070    0.1810 c         1 MOL      0.476732
    117 O19        -6.0600   -0.5070    1.4180 o         1 MOL     -0.552789
    118 C38        -6.3150    1.8550   -0.4790 c3        1 MOL     -0.412090
    119 C39        -7.8160    1.6530   -0.8280 ca        1 MOL      0.097608
    120 C40        -8.2390    1.8470   -2.1370 ca        1 MOL     -0.173052
    121 C41        -8.7430    1.3170    0.1870 ca        1 MOL     -0.173052
    122 C42        -9.6100    1.6570   -2.4630 ca        1 MOL     -0.073856
    123 C43       -10.1020    1.1160   -0.1790 ca        1 MOL     -0.073856
    124 C44       -10.5210    1.3500   -1.5200 ca        1 MOL     -0.153520
    125 H51        -3.8990    1.7090    0.2780 hn        1 MOL      0.281315
    126 H52        -5.4610    0.2400   -1.6250 h1        1 MOL     -0.007069
    127 H53        -5.9310    2.5700   -1.2090 hc        1 MOL      0.154189
    128 H54        -6.2920    2.2150    0.5430 hc        1 MOL      0.154189
    129 H55        -7.5180    2.0330   -2.9130 ha        1 MOL      0.131724
    130 H56        -8.3930    1.1980    1.1930 ha        1 MOL      0.131724
    131 H57        -9.8460    1.7870   -3.5150 ha        1 MOL      0.102364
    132 H58       -10.8260    0.8540    0.5800 ha        1 MOL      0.102364
    133 H59       -11.5560    1.2840   -1.8290 ha        1 MOL      0.113933
    134 N12        -6.8840   -1.5300   -0.3670 n         1 MOL     -0.180083
    135 C45        -7.6200   -2.4910    0.3290 c3        1 MOL      0.075757
    136 C46        -6.8050   -3.3980    1.2740 c         1 MOL      0.228640
    137 O20        -7.2980   -3.7970    2.3310 o         1 MOL     -0.515031
    138 C47        -8.4730   -3.2800   -0.6420 c3        1 MOL      0.026250
    139 C48        -8.6420   -2.2150   -1.7750 c3        1 MOL     -0.105274
    140 C49        -7.2550   -1.5860   -1.7570 c3        1 MOL      0.259962
    141 H60        -8.3470   -2.0020    0.9880 h1        1 MOL      0.070484
    142 H61        -7.9750   -4.1480   -1.0670 hc        1 MOL      0.014381
    143 H62        -9.4430   -3.5430   -0.2100 hc        1 MOL      0.014381
    144 H63        -8.8860   -2.6690   -2.7350 hc        1 MOL      0.024161
    145 H64        -9.4310   -1.5130   -1.4800 hc        1 MOL      0.024161
    146 H65        -6.5040   -2.0190   -2.4320 h1        1 MOL     -0.059705
    147 H66        -7.4870   -0.5810   -2.1040 h1        1 MOL     -0.059705
    148 N13        -5.5440   -3.5640    1.0700 n         1 MOL      0.033064
    149 C50        -4.7500   -4.5530    1.8310 c3        1 MOL     -0.358535
    150 C51        -4.3450   -4.1660    3.2750 c         1 MOL      0.500380
    151 O21        -4.4190   -5.0340    4.1790 o         1 MOL     -0.535597
    152 C52        -3.5680   -4.9000    0.9610 c3        1 MOL      0.180525
    153 C53        -2.7630   -6.1280    1.4180 c3        1 MOL     -0.265271
    154 C54        -1.5830   -6.5340    0.5220 c         1 MOL      0.809945
    155 O22        -1.2120   -5.8390   -0.4470 o         1 MOL     -0.765913
    156 O23        -1.0310   -7.6250    0.8280 o         1 MOL     -0.765913
    157 H67        -5.1470   -3.0380    0.3040 hn        1 MOL      0.077252
    158 H68        -5.3920   -5.4310    1.8770 h1        1 MOL      0.176472
    159 H69        -2.8080   -4.1230    0.8940 hc        1 MOL     -0.036766
    160 H70        -3.9360   -5.1160   -0.0400 hc        1 MOL     -0.036766
    161 H71        -3.4850   -6.9340    1.5020 hc        1 MOL      0.069841
    162 H72        -2.3410   -5.8750    2.3900 hc        1 MOL      0.069841
    163 N14        -4.0300   -2.8750    3.5950 n         1 MOL     -0.182537
    164 C55        -3.5850   -2.2950    4.8940 c3        1 MOL     -0.113123
    165 H73        -3.9610   -2.9090    5.7130 h1        1 MOL      0.066700
    166 H74        -2.4950   -2.2730    4.9280 h1        1 MOL      0.066700
    167 H75        -3.9730   -1.2810    4.9930 h1        1 MOL      0.066700
    168 H76        -4.1800   -2.1840    2.8740 hn        1 MOL      0.213211
    169 Ca1         0.4930   -4.1960   -1.5290 Ca        1 MOL      1.784451
    170 O24         0.4340   -3.6180   -4.2090 oh        1 MOL     -0.832365
    171 H77         0.4140   -2.6700   -4.3470 ho        1 MOL      0.405916
    172 H78         0.7590   -3.9670   -5.0390 ho        1 MOL      0.405916
    173 O25         0.6050   -6.7850   -2.5710 oh        1 MOL     -0.832365
    174 H79         0.7580   -7.3840   -3.3010 ho        1 MOL      0.405916
    175 H80         0.8920   -7.2680   -1.7960 ho        1 MOL      0.405916
    176 O26        -2.0900   -3.3080   -2.0840 oh        1 MOL     -0.832365
    177 H81        -2.8650   -3.7110   -2.4740 ho        1 MOL      0.405916
    178 H82        -2.4060   -2.4910   -1.7020 ho        1 MOL      0.405916
    179 O27         2.1930   -5.9400   -0.1250 oh        1 MOL     -0.832365
    180 H83         3.1400   -5.9750   -0.1980 ho        1 MOL      0.405916
    181 H84         1.9690   -6.6440    0.4830 ho        1 MOL      0.405916
@<TRIPOS>BOND
     1    1    2 1   
     2    1    4 1   
     3    1    5 1   
     4    1    6 1   
     5    2    3 2   
     6    2    7 1   
     7    7    8 1   
     8    7   15 1   
     9    8    9 1   
    10    8   11 1   
    11    8   16 1   
    12    9   10 2   
    13    9   19 1   
    14   11   12 1   
    15   11   17 1   
    16   11   18 1   
    17   12   13 1   
    18   12   14 1   
    19   19   20 1   
    20   19   24 1   
    21   20   21 1   
    22   20   23 1   
    23   20   25 1   
    24   21   22 2   
    25   21   29 1   
    26   23   26 1   
    27   23   27 1   
    28   23   28 1   
    29   29   30 1   
    30   29   37 1   
    31   30   31 1   
    32   30   33 1   
    33   30   38 1   
    34   31   32 2   
    35   31   41 1   
    36   33   34 1   
    37   33   39 1   
    38   33   40 1   
    39   34   35 1   
    40   34   36 1   
    41   41   42 1   
    42   41   45 1   
    43   42   43 1   
    44   42   46 1   
    45   42   47 1   
    46   43   44 2   
    47   43   48 1   
    48   48   49 1   
    49   48   56 1   
    50   49   50 1   
    51   49   52 1   
    52   49   57 1   
    53   50   51 2   
    54   50   62 1   
    55   52   53 1   
    56   52   58 1   
    57   52   59 1   
    58   53   54 1   
    59   53   55 2   
    60   54   60 1   
    61   54   61 1   
    62   62   63 1   
    63   62   66 1   
    64   63   64 1   
    65   63   67 1   
    66   63   68 1   
    67   64   65 2   
    68   64   69 1   
    69   69   70 1   
    70   69   76 1   
    71   70   71 1   
    72   70   73 1   
    73   70   77 1   
    74   71   72 2   
    75   71   83 1   
    76   73   74 1   
    77   73   75 1   
    78   73   78 1   
    79   74   80 1   
    80   74   81 1   
    81   74   82 1   
    82   75   79 1   
    83   83   84 1   
    84   83   91 1   
    85   84   85 1   
    86   84   87 1   
    87   84   92 1   
    88   85   86 2   
    89   85  102 1   
    90   87   88 1   
    91   87   89 1   
    92   87   93 1   
    93   88   90 1   
    94   88   94 1   
    95   88   95 1   
    96   89   96 1   
    97   89   97 1   
    98   89   98 1   
    99   90   99 1   
   100   90  100 1   
   101   90  101 1   
   102  102  103 1   
   103  102  110 1   
   104  103  104 1   
   105  103  106 1   
   106  103  111 1   
   107  104  105 2   
   108  104  114 1   
   109  106  107 1   
   110  106  112 1   
   111  106  113 1   
   112  107  108 1   
   113  107  109 1   
   114  114  115 1   
   115  114  125 1   
   116  115  116 1   
   117  115  118 1   
   118  115  126 1   
   119  116  117 2   
   120  116  134 1   
   121  118  119 1   
   122  118  127 1   
   123  118  128 1   
   124  119  120 ar  
   125  119  121 ar  
   126  120  122 ar  
   127  120  129 1   
   128  121  123 ar  
   129  121  130 1   
   130  122  124 ar  
   131  122  131 1   
   132  123  124 ar  
   133  123  132 1   
   134  124  133 1   
   135  134  135 1   
   136  134  140 1   
   137  135  136 1   
   138  135  138 1   
   139  135  141 1   
   140  136  137 2   
   141  136  148 1   
   142  138  139 1   
   143  138  142 1   
   144  138  143 1   
   145  139  140 1   
   146  139  144 1   
   147  139  145 1   
   148  140  146 1   
   149  140  147 1   
   150  148  149 1   
   151  148  157 1   
   152  149  150 1   
   153  149  152 1   
   154  149  158 1   
   155  150  151 2   
   156  150  163 1   
   157  152  153 1   
   158  152  159 1   
   159  152  160 1   
   160  153  154 1   
   161  153  161 1   
   162  153  162 1   
   163  154  155 1   
   164  154  156 1   
   165  163  164 1   
   166  163  168 1   
   167  164  165 1   
   168  164  166 1   
   169  164  167 1   
   170  170  171 1   
   171  170  172 1   
   172  173  174 1   
   173  173  175 1   
   174  176  177 1   
   175  176  178 1   
   176  179  180 1   
   177  179  181 1   
@<TRIPOS>SUBSTRUCTURE
     1 MOL         1 TEMP              0 ****  ****    0 ROOT
