@<TRIPOS>MOLECULE
MOL
  192   187     1     0     0
SMALL
resp


@<TRIPOS>ATOM
      1 C1          4.9050    3.4400   -4.0810 c3        1 MOL     -0.576832
      2 C2          5.5280    2.9200   -2.7890 c         1 MOL      0.922819
      3 O1          4.9150    2.7790   -1.7620 o         1 MOL     -0.656628
      4 H1          3.9750    2.9070   -4.2760 hc        1 MOL      0.141013
      5 H2          4.6980    4.5050   -3.9820 hc        1 MOL      0.141013
      6 H3          5.5960    3.2780   -4.9090 hc        1 MOL      0.141013
      7 N1          6.7900    2.3790   -2.9060 n         1 MOL     -0.754811
      8 C3          7.3730    1.2880   -2.1160 c3        1 MOL      0.309828
      9 C4          6.2870    0.2580   -1.7300 c         1 MOL      0.314152
     10 O2          5.8440    0.2300   -0.6140 o         1 MOL     -0.466877
     11 C5          8.2590    1.7470   -1.0460 c3        1 MOL     -0.028017
     12 C6          7.8400    2.8820   -0.1340 c         1 MOL      0.660471
     13 O3          6.9860    2.6860    0.7750 o         1 MOL     -0.686340
     14 O4          8.4960    3.8920   -0.2370 o         1 MOL     -0.686340
     15 H4          7.1870    2.5580   -3.8060 hn        1 MOL      0.316914
     16 H5          7.8720    0.6000   -2.7990 h1        1 MOL     -0.018069
     17 H6          9.1830    2.0260   -1.5570 hc        1 MOL      0.014030
     18 H7          8.6110    0.9070   -0.4420 hc        1 MOL      0.014030
     19 N2          5.8890   -0.5340   -2.7330 n         1 MOL     -0.424516
     20 C7          4.9320   -1.6500   -2.7210 c3        1 MOL      0.045120
     21 C8          5.3970   -2.9070   -1.9650 c         1 MOL      0.452698
     22 O5          5.1580   -4.0370   -2.3840 o         1 MOL     -0.518733
     23 C9          3.5660   -1.1690   -2.3750 c3        1 MOL      0.246150
     24 C10         2.4360   -2.2620   -2.2270 c3        1 MOL     -0.003819
     25 C11         2.9070   -0.1060   -3.2410 c3        1 MOL     -0.014015
     26 C12         2.1280   -3.1640   -3.4290 c3        1 MOL     -0.357658
     27 H8          6.2990   -0.3440   -3.6340 hn        1 MOL      0.292999
     28 H9          4.8000   -1.9940   -3.7450 h1        1 MOL      0.029789
     29 H10         3.5890   -0.8150   -1.3440 hc        1 MOL     -0.107301
     30 H11         1.4660   -1.7760   -2.1720 hc        1 MOL      0.089959
     31 H12         2.5940   -2.8460   -1.3310 hc        1 MOL      0.089959
     32 H13         3.1050   -0.3950   -4.2760 hc        1 MOL     -0.021319
     33 H14         1.8630    0.1140   -3.0100 hc        1 MOL     -0.021319
     34 H15         3.4470    0.8150   -3.0160 hc        1 MOL     -0.021319
     35 H16         1.7330   -2.5960   -4.2830 hc        1 MOL      0.067875
     36 H17         3.0840   -3.6600   -3.5630 hc        1 MOL      0.067875
     37 H18         1.3890   -3.9050   -3.1190 hc        1 MOL      0.067875
     38 N3          6.0730   -2.7450   -0.7410 n         1 MOL     -0.468605
     39 C13         6.7160   -3.8060    0.0560 c3        1 MOL      0.424722
     40 C14         5.8060   -4.9600    0.5790 c         1 MOL      0.467924
     41 O6          6.3340   -6.0640    0.5200 o         1 MOL     -0.573933
     42 C15         7.4460   -3.0920    1.2260 c3        1 MOL     -0.544791
     43 C16         8.8180   -2.5500    0.8300 c         1 MOL      0.805041
     44 O7          9.5730   -2.0280    1.6670 o         1 MOL     -0.753748
     45 O8          9.2010   -2.6260   -0.3490 o         1 MOL     -0.753748
     46 H19         6.1110   -1.8040   -0.3750 hn        1 MOL      0.307911
     47 H20         7.3610   -4.3460   -0.6360 h1        1 MOL     -0.000333
     48 H21         7.5990   -3.8120    2.0350 hc        1 MOL      0.149831
     49 H22         6.8410   -2.2490    1.5700 hc        1 MOL      0.149831
     50 N4          4.5560   -4.8420    1.1240 n         1 MOL     -0.508068
     51 C17         3.8110   -3.5580    1.3430 c3        1 MOL      0.032434
     52 C18         4.1110   -2.9400    2.7410 c         1 MOL      0.528123
     53 O9          5.0740   -3.3170    3.3540 o         1 MOL     -0.526825
     54 H23         4.1070   -5.7030    1.4070 hn        1 MOL      0.303178
     55 H24         2.7680   -3.8560    1.3570 h1        1 MOL      0.050503
     56 H25         3.9380   -2.7460    0.6180 h1        1 MOL      0.050503
     57 N5          3.3220   -1.9970    3.3250 n         1 MOL     -0.541067
     58 C19         2.1340   -1.3160    2.9600 c3        1 MOL      0.374914
     59 C20         2.1480   -0.7970    1.5000 c         1 MOL      0.161083
     60 O10         3.1930   -0.3580    0.9950 o         1 MOL     -0.545100
     61 C21         1.8180   -0.2710    3.9620 c3        1 MOL     -0.209293
     62 C22         2.9460    0.6430    4.2780 c         1 MOL      0.719675
     63 O11         3.4380    0.5820    5.3920 o         1 MOL     -0.662223
     64 O12         3.3400    1.3970    3.3640 o         1 MOL     -0.662223
     65 H26         3.6060   -1.7710    4.2620 hn        1 MOL      0.310420
     66 H27         1.2870   -1.9950    3.0170 h1        1 MOL     -0.066351
     67 H28         1.5270   -0.8230    4.8570 hc        1 MOL      0.017782
     68 H29         0.9880    0.3250    3.5550 hc        1 MOL      0.017782
     69 N6          1.0210   -0.8530    0.7920 n         1 MOL     -0.014394
     70 C23        -0.2720   -1.3390    1.1690 c3        1 MOL     -0.094617
     71 C24        -0.6540   -2.6900    0.6740 c         1 MOL      0.483625
     72 O13        -0.0410   -3.2410   -0.2170 o         1 MOL     -0.516467
     73 H30         1.1330   -0.6330   -0.1940 hn        1 MOL      0.134679
     74 H31        -1.0730   -0.6610    0.8710 h1        1 MOL      0.090610
     75 H32        -0.4210   -1.2840    2.2420 h1        1 MOL      0.090610
     76 N7         -1.8560   -3.2170    1.0570 n         1 MOL     -0.361420
     77 C25        -2.3140   -4.5820    0.7090 c3        1 MOL     -0.061792
     78 C26        -3.2490   -4.6550   -0.5420 c         1 MOL      0.466228
     79 O14        -3.4360   -5.7840   -0.9780 o         1 MOL     -0.533612
     80 C27        -2.9740   -5.3340    1.8850 c3        1 MOL     -0.056595
     81 C28        -4.2170   -4.7070    2.4820 c3        1 MOL     -0.317941
     82 C29        -5.4060   -4.6510    1.4920 c         1 MOL      0.475422
     83 N8         -6.2490   -5.6890    1.2230 n         1 MOL     -0.657065
     84 O15        -5.6520   -3.5140    0.9570 o         1 MOL     -0.567387
     85 H33        -2.4670   -2.6100    1.5780 hn        1 MOL      0.243642
     86 H34        -1.4080   -5.1080    0.3860 h1        1 MOL      0.149761
     87 H35        -2.3200   -5.4280    2.7410 hc        1 MOL      0.057652
     88 H36        -3.2860   -6.3090    1.5020 hc        1 MOL      0.057652
     89 H37        -3.9950   -3.7300    2.9120 hc        1 MOL      0.134941
     90 H38        -4.4970   -5.3910    3.2910 hc        1 MOL      0.134941
     91 H39        -6.0380   -6.6500    1.4740 hn        1 MOL      0.349459
     92 H40        -6.9710   -5.5270    0.5480 hn        1 MOL      0.349459
     93 N9         -3.5560   -3.5070   -1.2190 n         1 MOL     -0.175837
     94 C30        -4.0920   -3.4760   -2.6090 c3        1 MOL     -0.039149
     95 C31        -5.4690   -2.7400   -2.7020 c         1 MOL      0.330920
     96 O16        -5.8540   -2.4610   -3.8170 o         1 MOL     -0.516732
     97 C32        -3.0250   -2.8550   -3.5680 c3        1 MOL      0.306512
     98 C33        -1.8210   -3.7310   -3.6750 c3        1 MOL     -0.249669
     99 C34        -2.8200   -1.4330   -3.1250 c3        1 MOL     -0.249669
    100 H41        -3.2900   -2.6040   -0.8540 hn        1 MOL      0.166471
    101 H42        -4.2600   -4.4880   -2.9520 h1        1 MOL      0.080937
    102 H43        -3.4740   -2.8230   -4.5620 hc        1 MOL     -0.026366
    103 H44        -2.1750   -4.6270   -4.1830 hc        1 MOL      0.052183
    104 H45        -0.9620   -3.3280   -4.2010 hc        1 MOL      0.052183
    105 H46        -1.4320   -3.8590   -2.6670 hc        1 MOL      0.052183
    106 H47        -2.1280   -0.8820   -3.7760 hc        1 MOL      0.052183
    107 H48        -3.7320   -0.8690   -2.9420 hc        1 MOL      0.052183
    108 H49        -2.3350   -1.3510   -2.1460 hc        1 MOL      0.052183
    109 N10        -6.1950   -2.3760   -1.6280 n         1 MOL     -0.123254
    110 C35        -7.4230   -1.6320   -1.7130 c3        1 MOL     -0.085049
    111 C36        -7.3800   -0.0390   -1.6480 c         1 MOL      0.557307
    112 O17        -8.2400    0.6480   -2.1810 o         1 MOL     -0.547057
    113 C37        -8.4320   -2.3480   -0.7030 c3        1 MOL     -0.117280
    114 C38        -8.7670   -3.8110   -0.9990 c         1 MOL      0.690671
    115 N11        -9.3060   -4.1430   -2.1310 n         1 MOL     -0.776274
    116 O18        -8.6760   -4.6960   -0.2030 o         1 MOL     -0.566507
    117 H50        -5.8590   -2.6470   -0.7170 hn        1 MOL      0.182409
    118 H51        -7.8520   -1.8810   -2.6830 h1        1 MOL      0.061039
    119 H52        -9.3640   -1.7740   -0.6420 hc        1 MOL      0.037151
    120 H53        -7.9460   -2.3800    0.2730 hc        1 MOL      0.037151
    121 H54        -9.4870   -3.5580   -2.9280 hn        1 MOL      0.352141
    122 H55        -9.3020   -5.1350   -2.3430 hn        1 MOL      0.352141
    123 N12        -6.3680    0.5130   -1.0220 n         1 MOL     -0.339947
    124 C39        -6.4220    1.9490   -0.6620 c3        1 MOL     -0.027560
    125 C40        -5.0290    2.6730   -0.3960 c         1 MOL      0.407078
    126 O19        -4.0470    2.0790    0.1660 o         1 MOL     -0.441013
    127 C41        -7.2710    2.1410    0.6120 c3        1 MOL     -0.014597
    128 C42        -6.6810    1.4250    1.8360 ca        1 MOL     -0.169049
    129 C43        -6.8070    0.0120    1.9540 ca        1 MOL      0.083633
    130 C44        -5.9530    2.0900    2.8480 ca        1 MOL      0.083633
    131 C45        -6.3610   -0.7210    3.0480 ca        1 MOL     -0.446561
    132 C46        -5.5160    1.3680    3.9470 ca        1 MOL     -0.446561
    133 C47        -5.6850   -0.0020    4.0060 ca        1 MOL      0.440164
    134 O20        -5.1150   -0.6250    5.0670 oh        1 MOL     -0.484794
    135 H56        -5.6280   -0.0650   -0.6660 hn        1 MOL      0.232641
    136 H57        -7.0220    2.5560   -1.3440 h1        1 MOL      0.079191
    137 H58        -8.2620    1.6940    0.4970 hc        1 MOL      0.052874
    138 H59        -7.4510    3.1770    0.8730 hc        1 MOL      0.052874
    139 H60        -7.3330   -0.5750    1.2170 ha        1 MOL      0.069462
    140 H61        -5.8620    3.1680    2.8170 ha        1 MOL      0.069462
    141 H62        -6.3830   -1.7880    3.1790 ha        1 MOL      0.215337
    142 H63        -4.9400    1.8990    4.6870 ha        1 MOL      0.215337
    143 H64        -5.2060   -1.5740    4.9890 ho        1 MOL      0.308333
    144 N13        -4.9310    3.8600   -0.9260 n         1 MOL     -0.525362
    145 C48        -4.0660    4.9190   -0.3590 c3        1 MOL      0.006648
    146 C49        -2.5600    4.8610   -0.5590 c         1 MOL      0.425360
    147 O21        -1.8900    5.8190   -0.2400 o         1 MOL     -0.506751
    148 C50        -4.4840    5.2450    1.1020 c3        1 MOL     -0.123487
    149 C51        -5.8740    5.8860    1.3060 c3        1 MOL     -0.144918
    150 C52        -6.0800    6.5050    2.6810 c         1 MOL      0.657786
    151 O22        -5.8330    5.7610    3.6900 o         1 MOL     -0.702122
    152 O23        -6.4390    7.6720    2.7530 o         1 MOL     -0.702122
    153 H65        -5.7540    4.0890   -1.4450 hn        1 MOL      0.331802
    154 H66        -4.3550    5.8500   -0.8310 h1        1 MOL      0.091910
    155 H67        -3.7840    5.9540    1.5320 hc        1 MOL      0.118059
    156 H68        -4.2650    4.4980    1.8520 hc        1 MOL      0.118059
    157 H69        -6.6010    5.0790    1.2530 hc        1 MOL      0.009888
    158 H70        -6.1900    6.5350    0.4940 hc        1 MOL      0.009888
    159 N14        -2.0280    3.8580   -1.2320 n         1 MOL     -0.138212
    160 C53        -0.6920    3.9360   -1.8190 c3        1 MOL     -0.390856
    161 C54        -0.6140    4.8060   -3.1390 c         1 MOL      0.449507
    162 O24         0.3810    5.1500   -3.7590 o         1 MOL     -0.510243
    163 C55        -0.1160    2.4970   -2.0880 c3        1 MOL     -0.124561
    164 C56        -0.0060    1.6010   -0.8350 c3        1 MOL      0.035796
    165 C57         0.8560    2.3260    0.1940 c         1 MOL      0.521749
    166 O25         0.2950    2.8310    1.2180 o         1 MOL     -0.616922
    167 O26         2.1320    2.3940    0.0630 o         1 MOL     -0.616922
    168 H71        -2.5250    3.0160   -1.4920 hn        1 MOL      0.262251
    169 H72        -0.0360    4.4090   -1.0990 h1        1 MOL      0.291194
    170 H73         0.8490    2.5110   -2.6000 hc        1 MOL      0.074025
    171 H74        -0.9240    2.0430   -2.6620 hc        1 MOL      0.074025
    172 H75         0.4820    0.7380   -1.2900 hc        1 MOL     -0.025736
    173 H76        -0.9990    1.3430   -0.4600 hc        1 MOL     -0.025736
    174 N15        -1.8000    5.2720   -3.5430 n         1 MOL     -0.135935
    175 C58        -2.1180    6.0320   -4.7520 c3        1 MOL     -0.164704
    176 H77        -3.0970    5.7290   -5.1240 h1        1 MOL      0.074964
    177 H78        -2.1320    7.0970   -4.5200 h1        1 MOL      0.074964
    178 H79        -1.3640    5.8350   -5.5150 h1        1 MOL      0.074964
    179 H80        -2.5210    4.8400   -2.9870 hn        1 MOL      0.127225
    180 Ca1         4.5620    2.0890    0.9090 Ca        1 MOL      1.807641
    181 O27         2.4990    3.7210    2.7000 oh        1 MOL     -0.863088
    182 H81         2.7620    2.8580    3.0370 ho        1 MOL      0.397473
    183 H82         1.7240    3.5390    2.1710 ho        1 MOL      0.397473
    184 O28         6.0990    0.4890    2.2830 oh        1 MOL     -0.863088
    185 H83         7.0480    0.5340    2.1630 ho        1 MOL      0.397473
    186 H84         5.9830    0.0590    3.1270 ho        1 MOL      0.397473
    187 O29         4.5000    4.5970    0.3960 oh        1 MOL     -0.863088
    188 H85         5.0180    5.2880   -0.0230 ho        1 MOL      0.397473
    189 H86         3.5980    4.9160    0.3290 ho        1 MOL      0.397473
    190 O30         6.0580    3.5260    3.2280 oh        1 MOL     -0.863088
    191 H87         6.7280    3.6490    3.9050 ho        1 MOL      0.397473
    192 H88         6.5530    3.4470    2.4130 ho        1 MOL      0.397473
@<TRIPOS>BOND
     1    1    2 1   
     2    1    4 1   
     3    1    5 1   
     4    1    6 1   
     5    2    3 2   
     6    2    7 1   
     7    7    8 1   
     8    7   15 1   
     9    8    9 1   
    10    8   11 1   
    11    8   16 1   
    12    9   10 2   
    13    9   19 1   
    14   11   12 1   
    15   11   17 1   
    16   11   18 1   
    17   12   13 1   
    18   12   14 1   
    19   19   20 1   
    20   19   27 1   
    21   20   21 1   
    22   20   23 1   
    23   20   28 1   
    24   21   22 2   
    25   21   38 1   
    26   23   24 1   
    27   23   25 1   
    28   23   29 1   
    29   24   26 1   
    30   24   30 1   
    31   24   31 1   
    32   25   32 1   
    33   25   33 1   
    34   25   34 1   
    35   26   35 1   
    36   26   36 1   
    37   26   37 1   
    38   38   39 1   
    39   38   46 1   
    40   39   40 1   
    41   39   42 1   
    42   39   47 1   
    43   40   41 2   
    44   40   50 1   
    45   42   43 1   
    46   42   48 1   
    47   42   49 1   
    48   43   44 1   
    49   43   45 1   
    50   50   51 1   
    51   50   54 1   
    52   51   52 1   
    53   51   55 1   
    54   51   56 1   
    55   52   53 2   
    56   52   57 1   
    57   57   58 1   
    58   57   65 1   
    59   58   59 1   
    60   58   61 1   
    61   58   66 1   
    62   59   60 2   
    63   59   69 1   
    64   61   62 1   
    65   61   67 1   
    66   61   68 1   
    67   62   63 1   
    68   62   64 1   
    69   69   70 1   
    70   69   73 1   
    71   70   71 1   
    72   70   74 1   
    73   70   75 1   
    74   71   72 2   
    75   71   76 1   
    76   76   77 1   
    77   76   85 1   
    78   77   78 1   
    79   77   80 1   
    80   77   86 1   
    81   78   79 2   
    82   78   93 1   
    83   80   81 1   
    84   80   87 1   
    85   80   88 1   
    86   81   82 1   
    87   81   89 1   
    88   81   90 1   
    89   82   83 1   
    90   82   84 2   
    91   83   91 1   
    92   83   92 1   
    93   93   94 1   
    94   93  100 1   
    95   94   95 1   
    96   94   97 1   
    97   94  101 1   
    98   95   96 2   
    99   95  109 1   
   100   97   98 1   
   101   97   99 1   
   102   97  102 1   
   103   98  103 1   
   104   98  104 1   
   105   98  105 1   
   106   99  106 1   
   107   99  107 1   
   108   99  108 1   
   109  109  110 1   
   110  109  117 1   
   111  110  111 1   
   112  110  113 1   
   113  110  118 1   
   114  111  112 2   
   115  111  123 1   
   116  113  114 1   
   117  113  119 1   
   118  113  120 1   
   119  114  115 1   
   120  114  116 2   
   121  115  121 1   
   122  115  122 1   
   123  123  124 1   
   124  123  135 1   
   125  124  125 1   
   126  124  127 1   
   127  124  136 1   
   128  125  126 2   
   129  125  144 1   
   130  127  128 1   
   131  127  137 1   
   132  127  138 1   
   133  128  129 ar  
   134  128  130 ar  
   135  129  131 ar  
   136  129  139 1   
   137  130  132 ar  
   138  130  140 1   
   139  131  133 ar  
   140  131  141 1   
   141  132  133 ar  
   142  132  142 1   
   143  133  134 1   
   144  134  143 1   
   145  144  145 1   
   146  144  153 1   
   147  145  146 1   
   148  145  148 1   
   149  145  154 1   
   150  146  147 2   
   151  146  159 1   
   152  148  149 1   
   153  148  155 1   
   154  148  156 1   
   155  149  150 1   
   156  149  157 1   
   157  149  158 1   
   158  150  151 1   
   159  150  152 1   
   160  159  160 1   
   161  159  168 1   
   162  160  161 1   
   163  160  163 1   
   164  160  169 1   
   165  161  162 2   
   166  161  174 1   
   167  163  164 1   
   168  163  170 1   
   169  163  171 1   
   170  164  165 1   
   171  164  172 1   
   172  164  173 1   
   173  165  166 1   
   174  165  167 1   
   175  174  175 1   
   176  174  179 1   
   177  175  176 1   
   178  175  177 1   
   179  175  178 1   
   180  181  182 1   
   181  181  183 1   
   182  184  185 1   
   183  184  186 1   
   184  187  188 1   
   185  187  189 1   
   186  190  191 1   
   187  190  192 1   
@<TRIPOS>SUBSTRUCTURE
     1 MOL         1 TEMP              0 ****  ****    0 ROOT
