@<TRIPOS>MOLECULE
MOL
  192   187     1     0     0
SMALL
resp


@<TRIPOS>ATOM
      1 C1         -4.3780    6.2180    2.8950 c3        1 MOL     -0.329679
      2 C2         -4.3370    4.7740    2.3630 c         1 MOL      0.562135
      3 O1         -4.2950    3.7590    3.0960 o         1 MOL     -0.561130
      4 H1         -3.3710    6.6360    2.8860 hc        1 MOL      0.089209
      5 H2         -5.0270    6.8210    2.2610 hc        1 MOL      0.089209
      6 H3         -4.7620    6.2190    3.9150 hc        1 MOL      0.089209
      7 N1         -4.2600    4.6670    1.0280 n         1 MOL     -0.225519
      8 C3         -4.1950    3.4020    0.2850 c3        1 MOL     -0.151995
      9 C4         -2.7710    2.8790    0.1240 c         1 MOL      0.602441
     10 O2         -2.5680    1.8560   -0.3750 o         1 MOL     -0.543566
     11 C5         -4.9930    3.4340   -1.0660 c3        1 MOL     -0.212662
     12 C6         -5.2480    4.8590   -1.7250 c         1 MOL      0.711943
     13 O3         -5.9570    4.8760   -2.7650 o         1 MOL     -0.688108
     14 O4         -4.5870    5.9390   -1.3730 o         1 MOL     -0.688108
     15 H4         -4.3060    5.5430    0.5210 hn        1 MOL      0.174585
     16 H5         -4.6770    2.7120    0.9790 h1        1 MOL      0.105943
     17 H6         -5.9470    2.9310   -0.9760 hc        1 MOL      0.072819
     18 H7         -4.3990    2.8980   -1.8160 hc        1 MOL      0.072819
     19 N2         -1.7550    3.6550    0.4320 n         1 MOL     -0.376371
     20 C7         -0.3460    3.4130    0.1100 c3        1 MOL      0.191528
     21 C8          0.4660    2.9950    1.3710 c         1 MOL      0.440225
     22 O5          0.4160    3.6030    2.3560 o         1 MOL     -0.544856
     23 C9          0.3270    4.7070   -0.4970 c3        1 MOL      0.044945
     24 C10        -0.0710    5.0270   -1.9240 c3        1 MOL     -0.346122
     25 C11        -1.5140    5.4380   -2.1070 c3        1 MOL      0.230236
     26 C12        -1.8080    6.0290   -3.5430 c3        1 MOL      0.091505
     27 N3         -3.1940    6.5440   -3.6890 n4        1 MOL     -0.593851
     28 H8         -1.9160    4.5620    0.8420 hn        1 MOL      0.184386
     29 H9         -0.1950    2.6200   -0.6210 h1        1 MOL      0.007346
     30 H10         1.4010    4.5000   -0.4720 hc        1 MOL      0.021821
     31 H11         0.1510    5.5520    0.1750 hc        1 MOL      0.021821
     32 H12        -0.0020    4.0880   -2.4850 hc        1 MOL      0.087650
     33 H13         0.5560    5.8430   -2.2860 hc        1 MOL      0.087650
     34 H14        -1.9120    6.1500   -1.3800 hc        1 MOL     -0.007482
     35 H15        -2.1980    4.6070   -2.0010 hc        1 MOL     -0.007482
     36 H16        -1.7090    5.2150   -4.2610 hx        1 MOL      0.037818
     37 H17        -1.0200    6.7450   -3.7730 hx        1 MOL      0.037818
     38 H18        -3.1000    7.5430   -3.8420 hn        1 MOL      0.370913
     39 H19        -3.5560    6.1490   -4.5490 hn        1 MOL      0.370913
     40 H20        -3.6490    6.3640   -2.8150 hn        1 MOL      0.370913
     41 N4          1.3380    1.9860    1.3550 n         1 MOL     -0.264816
     42 C13         1.6010    1.0260    0.2540 c3        1 MOL     -0.045565
     43 C14         2.0170    1.4950   -1.1800 c         1 MOL      0.497165
     44 O6          1.3660    1.1550   -2.0950 o         1 MOL     -0.524613
     45 C15         0.5730   -0.0980    0.3000 c3        1 MOL     -0.126768
     46 C16         0.3740   -0.8020    1.6100 c         1 MOL      0.801446
     47 O7         -0.7350   -1.2950    1.8920 o         1 MOL     -0.771927
     48 O8          1.3020   -0.9580    2.4140 o         1 MOL     -0.771927
     49 H21         1.9260    1.8430    2.1690 hn        1 MOL      0.236860
     50 H22         2.4910    0.5480    0.6400 h1        1 MOL      0.064958
     51 H23         0.8600   -0.8970   -0.3860 hc        1 MOL      0.080263
     52 H24        -0.4330    0.2630    0.0740 hc        1 MOL      0.080263
     53 N5          2.9650    2.4280   -1.4050 n         1 MOL     -0.434174
     54 C17         4.0260    2.8230   -0.4140 c3        1 MOL      0.204540
     55 C18         4.7480    4.0590   -0.9300 c         1 MOL      0.515371
     56 O9          4.3830    4.5330   -2.0140 o         1 MOL     -0.546998
     57 H25         2.8410    2.9670   -2.2480 hn        1 MOL      0.288548
     58 H26         4.7500    2.0080   -0.3470 h1        1 MOL     -0.019427
     59 H27         3.6330    3.1070    0.5680 h1        1 MOL     -0.019427
     60 N6          5.8020    4.6080   -0.2950 n         1 MOL     -0.419668
     61 C19         6.3840    4.0920    0.9500 c3        1 MOL      0.081142
     62 C20         7.2280    2.8190    0.7210 c         1 MOL      0.432358
     63 O10         7.6140    2.4770   -0.4420 o         1 MOL     -0.475613
     64 C21         7.2180    5.1270    1.7170 c3        1 MOL     -0.217006
     65 C22         8.0620    6.0410    0.8120 c         1 MOL      0.715741
     66 O11         7.5940    7.1790    0.4770 o         1 MOL     -0.646613
     67 O12         9.2790    5.7200    0.5140 o         1 MOL     -0.646613
     68 H28         6.1480    5.5010   -0.6290 hn        1 MOL      0.292647
     69 H29         5.6010    3.7760    1.6370 h1        1 MOL      0.013399
     70 H30         7.8810    4.6680    2.4460 hc        1 MOL      0.037330
     71 H31         6.5290    5.7890    2.2250 hc        1 MOL      0.037330
     72 N7          7.6360    2.1110    1.7470 n         1 MOL     -0.247431
     73 C23         8.4540    0.9130    1.6940 c3        1 MOL     -0.114433
     74 C24         7.7120   -0.4570    1.3540 c         1 MOL      0.450214
     75 O13         8.2920   -1.4840    0.9750 o         1 MOL     -0.536311
     76 H32         7.4390    2.4130    2.6860 hn        1 MOL      0.228042
     77 H33         8.9730    0.8590    2.6420 h1        1 MOL      0.113353
     78 H34         9.3420    1.0420    1.0860 h1        1 MOL      0.113353
     79 N8          6.3480   -0.4600    1.3340 n         1 MOL     -0.256967
     80 C25         5.5600   -1.6870    1.0390 c3        1 MOL      0.034026
     81 C26         5.1980   -1.7550   -0.4810 c         1 MOL      0.605533
     82 O14         5.1060   -0.6920   -1.1360 o         1 MOL     -0.510266
     83 C27         4.3720   -1.6850    1.9600 c3        1 MOL      0.359252
     84 C28         4.8620   -1.9330    3.3900 c3        1 MOL     -0.053928
     85 O15         3.3170   -2.5290    1.5640 oh        1 MOL     -0.598708
     86 H35         5.8610    0.3990    1.5370 hn        1 MOL      0.091496
     87 H36         6.0830   -2.5940    1.2970 h1        1 MOL      0.047530
     88 H37         4.0340   -0.6510    1.8360 h1        1 MOL      0.022465
     89 H38         2.5690   -2.0150    1.8640 ho        1 MOL      0.227684
     90 H39         5.7260   -1.3760    3.7400 hc        1 MOL     -0.003405
     91 H40         4.0010   -1.6780    4.0140 hc        1 MOL     -0.003405
     92 H41         5.0330   -2.9820    3.6440 hc        1 MOL     -0.003405
     93 N9          4.9020   -2.9470   -0.9660 n         1 MOL     -0.440224
     94 C29         4.5840   -3.2810   -2.3220 c3        1 MOL     -0.223936
     95 C30         3.1940   -3.8910   -2.6630 c         1 MOL      0.658124
     96 O16         2.8630   -4.0510   -3.8410 o         1 MOL     -0.597691
     97 C31         5.7620   -3.9580   -3.0140 c3        1 MOL      0.135040
     98 C32         6.0510   -5.3350   -2.3160 c3        1 MOL      0.031659
     99 C33         7.0480   -3.1110   -2.9900 c3        1 MOL     -0.386460
    100 C34         7.0170   -6.1000   -3.1440 c3        1 MOL     -0.111459
    101 H42         5.1390   -3.7520   -0.3910 hn        1 MOL      0.249480
    102 H43         4.4430   -2.3150   -2.8020 h1        1 MOL      0.156482
    103 H44         5.5140   -4.1180   -4.0660 hc        1 MOL      0.042170
    104 H45         5.1600   -5.9530   -2.2320 hc        1 MOL      0.010320
    105 H46         6.4980   -5.2240   -1.3170 hc        1 MOL      0.010320
    106 H47         7.5200   -3.1320   -2.0020 hc        1 MOL      0.123937
    107 H48         7.8080   -3.5770   -3.6140 hc        1 MOL      0.123937
    108 H49         6.8180   -2.0660   -3.2170 hc        1 MOL      0.123937
    109 H50         7.1470   -7.1360   -2.8190 hc        1 MOL      0.020724
    110 H51         6.5300   -6.1930   -4.1180 hc        1 MOL      0.020724
    111 H52         7.9470   -5.5770   -3.3160 hc        1 MOL      0.020724
    112 N10         2.4420   -4.2770   -1.6860 n         1 MOL     -0.490222
    113 C35         1.0960   -5.0100   -1.7930 c3        1 MOL     -0.025370
    114 C36        -0.0390   -4.0640   -1.3600 c         1 MOL      0.844897
    115 O17         0.0480   -3.2410   -0.3980 o         1 MOL     -0.614510
    116 C37         1.0450   -6.3850   -1.1150 c3        1 MOL      0.349462
    117 C38        -0.1990   -7.2470   -1.4970 c3        1 MOL     -0.485359
    118 O18         0.9910   -6.3060    0.2260 oh        1 MOL     -0.697405
    119 H53         2.7420   -3.9630   -0.7730 hn        1 MOL      0.291853
    120 H54         0.9270   -5.1080   -2.8640 h1        1 MOL      0.101890
    121 H55         1.9870   -6.8800   -1.3710 h1        1 MOL      0.024495
    122 H56         1.5210   -6.9920    0.6400 ho        1 MOL      0.442868
    123 H57        -0.1530   -8.1700   -0.9170 hc        1 MOL      0.134622
    124 H58        -1.1420   -6.8000   -1.1680 hc        1 MOL      0.134622
    125 H59        -0.2070   -7.3500   -2.5820 hc        1 MOL      0.134622
    126 N11        -1.1380   -4.1060   -2.1470 n         1 MOL     -0.700578
    127 C39        -2.0510   -3.0300   -2.2570 c3        1 MOL     -0.024557
    128 C40        -3.5100   -3.4830   -2.1450 c         1 MOL      0.782081
    129 O19        -3.9200   -4.4580   -2.6890 o         1 MOL     -0.562738
    130 C41        -1.8330   -2.3390   -3.6340 c3        1 MOL      0.188245
    131 C42        -0.4490   -1.7620   -3.8590 c3        1 MOL     -0.274979
    132 O20        -2.7300   -1.2680   -3.7600 oh        1 MOL     -0.549770
    133 H60        -1.2550   -4.7800   -2.8840 hn        1 MOL      0.338959
    134 H61        -1.8060   -2.3080   -1.4750 h1        1 MOL      0.149107
    135 H62        -2.0900   -3.0590   -4.4090 h1        1 MOL      0.015212
    136 H63        -2.8260   -1.0820   -4.6880 ho        1 MOL      0.359569
    137 H64         0.3400   -2.5090   -3.7620 hc        1 MOL      0.093450
    138 H65        -0.3570   -1.1890   -4.7900 hc        1 MOL      0.093450
    139 H66        -0.3240   -1.0660   -3.0390 hc        1 MOL      0.093450
    140 N12        -4.3200   -2.6420   -1.4840 n         1 MOL     -0.693072
    141 C43        -5.8430   -2.6700   -1.4000 c3        1 MOL      0.069263
    142 C44        -6.4660   -2.3260   -0.0470 c         1 MOL      0.646851
    143 O21        -7.6220   -2.7200    0.1070 o         1 MOL     -0.565611
    144 C45        -6.5240   -1.8090   -2.4790 c3        1 MOL     -0.323939
    145 C46        -6.0690   -0.3090   -2.3650 c3        1 MOL      0.062163
    146 C47        -6.7340    0.4860   -3.4270 c3        1 MOL     -0.004471
    147 C48        -6.1710    0.1880   -4.8160 c3        1 MOL      0.018190
    148 N13        -6.6800    0.9580   -5.9410 n4        1 MOL     -0.344664
    149 H67        -3.8590   -1.8100   -1.1270 hn        1 MOL      0.322324
    150 H68        -6.1010   -3.7030   -1.6420 h1        1 MOL      0.128594
    151 H69        -7.6050   -1.8640   -2.3470 hc        1 MOL      0.106734
    152 H70        -6.1810   -2.2040   -3.4370 hc        1 MOL      0.106734
    153 H71        -5.0030   -0.1510   -2.5070 hc        1 MOL      0.024388
    154 H72        -6.3610    0.0580   -1.3810 hc        1 MOL      0.024388
    155 H73        -6.7620    1.5240   -3.0880 hc        1 MOL      0.038539
    156 H74        -7.8010    0.2840   -3.4580 hc        1 MOL      0.038539
    157 H75        -6.2990   -0.8700   -5.0630 hx        1 MOL      0.065614
    158 H76        -5.0950    0.3610   -4.8040 hx        1 MOL      0.065614
    159 H77        -6.1250    0.6700   -6.7370 hn        1 MOL      0.287184
    160 H78        -7.6550    0.7830   -6.1420 hn        1 MOL      0.287184
    161 H79        -6.4420    1.9070   -5.6860 hn        1 MOL      0.287184
    162 N14        -5.7000   -1.8760    0.9980 n         1 MOL     -0.447909
    163 C49        -6.2470   -1.4410    2.3210 c3        1 MOL     -0.024666
    164 C50        -6.8160   -0.0130    2.3140 c         1 MOL      0.395222
    165 O22        -6.1600    0.9880    1.8400 o         1 MOL     -0.441318
    166 C51        -5.2600   -1.7980    3.5150 c3        1 MOL     -0.163304
    167 C52        -4.8860   -3.2690    3.6960 c3        1 MOL      0.164464
    168 C53        -3.5860   -3.3280    4.4940 c         1 MOL      0.655239
    169 O23        -2.5600   -3.5450    3.8540 o         1 MOL     -0.745770
    170 O24        -3.6260   -3.1190    5.7810 o         1 MOL     -0.745770
    171 H80        -4.7540   -1.5890    0.7940 hn        1 MOL      0.309330
    172 H81        -7.0280   -2.1990    2.4690 h1        1 MOL      0.075267
    173 H82        -5.7550   -1.5110    4.4410 hc        1 MOL      0.060238
    174 H83        -4.3560   -1.2190    3.3260 hc        1 MOL      0.060238
    175 H84        -4.8070   -3.8310    2.7710 hc        1 MOL     -0.033498
    176 H85        -5.6110   -3.7850    4.3290 hc        1 MOL     -0.033498
    177 N15        -8.0990    0.1100    2.7520 n         1 MOL     -0.255512
    178 C54        -8.9570    1.3030    2.5170 c3        1 MOL     -0.242297
    179 H86        -9.9610    1.1070    2.8940 h1        1 MOL      0.117594
    180 H87        -8.5360    2.1630    3.0380 h1        1 MOL      0.117594
    181 H88        -9.0060    1.5120    1.4490 h1        1 MOL      0.117594
    182 H89        -8.5890   -0.6870    3.1390 hn        1 MOL      0.263577
    183 Ca1        -0.1990   -2.5540    4.1210 Ca        1 MOL      1.820373
    184 O25         0.1710   -4.2310    2.0480 oh        1 MOL     -0.984883
    185 H90         0.2980   -3.7390    1.2340 ho        1 MOL      0.477466
    186 H91         0.1430   -5.1530    1.7720 ho        1 MOL      0.477466
    187 O26        -1.5950   -0.4160    4.7190 oh        1 MOL     -0.984883
    188 H92        -2.2830   -0.2910    5.3650 ho        1 MOL      0.477466
    189 H93        -1.7510    0.2790    4.0650 ho        1 MOL      0.477466
    190 O27        -0.8850   -2.5990    6.8260 oh        1 MOL     -0.984883
    191 H94        -0.6100   -2.7990    7.7160 ho        1 MOL      0.477466
    192 H95        -1.7780   -2.2720    6.9140 ho        1 MOL      0.477466
@<TRIPOS>BOND
     1    1    2 1   
     2    1    4 1   
     3    1    5 1   
     4    1    6 1   
     5    2    3 2   
     6    2    7 1   
     7    7    8 1   
     8    7   15 1   
     9    8    9 1   
    10    8   11 1   
    11    8   16 1   
    12    9   10 2   
    13    9   19 1   
    14   11   12 1   
    15   11   17 1   
    16   11   18 1   
    17   12   13 1   
    18   12   14 1   
    19   19   20 1   
    20   19   28 1   
    21   20   21 1   
    22   20   23 1   
    23   20   29 1   
    24   21   22 2   
    25   21   41 1   
    26   23   24 1   
    27   23   30 1   
    28   23   31 1   
    29   24   25 1   
    30   24   32 1   
    31   24   33 1   
    32   25   26 1   
    33   25   34 1   
    34   25   35 1   
    35   26   27 1   
    36   26   36 1   
    37   26   37 1   
    38   27   38 1   
    39   27   39 1   
    40   27   40 1   
    41   41   42 1   
    42   41   49 1   
    43   42   43 1   
    44   42   45 1   
    45   42   50 1   
    46   43   44 2   
    47   43   53 1   
    48   45   46 1   
    49   45   51 1   
    50   45   52 1   
    51   46   47 1   
    52   46   48 1   
    53   53   54 1   
    54   53   57 1   
    55   54   55 1   
    56   54   58 1   
    57   54   59 1   
    58   55   56 2   
    59   55   60 1   
    60   60   61 1   
    61   60   68 1   
    62   61   62 1   
    63   61   64 1   
    64   61   69 1   
    65   62   63 2   
    66   62   72 1   
    67   64   65 1   
    68   64   70 1   
    69   64   71 1   
    70   65   66 1   
    71   65   67 1   
    72   72   73 1   
    73   72   76 1   
    74   73   74 1   
    75   73   77 1   
    76   73   78 1   
    77   74   75 2   
    78   74   79 1   
    79   79   80 1   
    80   79   86 1   
    81   80   81 1   
    82   80   83 1   
    83   80   87 1   
    84   81   82 2   
    85   81   93 1   
    86   83   84 1   
    87   83   85 1   
    88   83   88 1   
    89   84   90 1   
    90   84   91 1   
    91   84   92 1   
    92   85   89 1   
    93   93   94 1   
    94   93  101 1   
    95   94   95 1   
    96   94   97 1   
    97   94  102 1   
    98   95   96 2   
    99   95  112 1   
   100   97   98 1   
   101   97   99 1   
   102   97  103 1   
   103   98  100 1   
   104   98  104 1   
   105   98  105 1   
   106   99  106 1   
   107   99  107 1   
   108   99  108 1   
   109  100  109 1   
   110  100  110 1   
   111  100  111 1   
   112  112  113 1   
   113  112  119 1   
   114  113  114 1   
   115  113  116 1   
   116  113  120 1   
   117  114  115 2   
   118  114  126 1   
   119  116  117 1   
   120  116  118 1   
   121  116  121 1   
   122  117  123 1   
   123  117  124 1   
   124  117  125 1   
   125  118  122 1   
   126  126  127 1   
   127  126  133 1   
   128  127  128 1   
   129  127  130 1   
   130  127  134 1   
   131  128  129 2   
   132  128  140 1   
   133  130  131 1   
   134  130  132 1   
   135  130  135 1   
   136  131  137 1   
   137  131  138 1   
   138  131  139 1   
   139  132  136 1   
   140  140  141 1   
   141  140  149 1   
   142  141  142 1   
   143  141  144 1   
   144  141  150 1   
   145  142  143 2   
   146  142  162 1   
   147  144  145 1   
   148  144  151 1   
   149  144  152 1   
   150  145  146 1   
   151  145  153 1   
   152  145  154 1   
   153  146  147 1   
   154  146  155 1   
   155  146  156 1   
   156  147  148 1   
   157  147  157 1   
   158  147  158 1   
   159  148  159 1   
   160  148  160 1   
   161  148  161 1   
   162  162  163 1   
   163  162  171 1   
   164  163  164 1   
   165  163  166 1   
   166  163  172 1   
   167  164  165 2   
   168  164  177 1   
   169  166  167 1   
   170  166  173 1   
   171  166  174 1   
   172  167  168 1   
   173  167  175 1   
   174  167  176 1   
   175  168  169 1   
   176  168  170 1   
   177  177  178 1   
   178  177  182 1   
   179  178  179 1   
   180  178  180 1   
   181  178  181 1   
   182  184  185 1   
   183  184  186 1   
   184  187  188 1   
   185  187  189 1   
   186  190  191 1   
   187  190  192 1   
@<TRIPOS>SUBSTRUCTURE
     1 MOL         1 TEMP              0 ****  ****    0 ROOT
