@<TRIPOS>MOLECULE
MOL
  192   187     1     0     0
SMALL
resp


@<TRIPOS>ATOM
      1 C1         -9.5570    1.2610   -1.5510 c3        1 MOL     -0.560183
      2 C2         -8.3440    0.5800   -0.9110 c         1 MOL      0.746420
      3 O1         -7.3050    0.3450   -1.4420 o         1 MOL     -0.665954
      4 H1         -9.6100    0.9890   -2.6060 hc        1 MOL      0.147769
      5 H2        -10.4660    0.9350   -1.0460 hc        1 MOL      0.147769
      6 H3         -9.4580    2.3420   -1.4600 hc        1 MOL      0.147769
      7 N1         -8.4450    0.2770    0.3630 n         1 MOL     -0.556827
      8 C3         -7.5060   -0.3780    1.3000 c3        1 MOL      0.262239
      9 C4         -7.2900   -1.8350    1.0300 c         1 MOL      0.213029
     10 O2         -7.7600   -2.7690    1.7120 o         1 MOL     -0.441952
     11 C5         -7.8300   -0.0520    2.8190 c3        1 MOL     -0.363767
     12 C6         -9.3280   -0.1020    3.2480 c         1 MOL      0.771645
     13 O3        -10.1580   -0.7690    2.6000 o         1 MOL     -0.672481
     14 O4         -9.6790    0.6650    4.1790 o         1 MOL     -0.672481
     15 H4         -9.3030    0.5170    0.8420 hn        1 MOL      0.301124
     16 H5         -6.4870   -0.0140    1.1520 h1        1 MOL      0.044872
     17 H6         -7.4890    0.9700    3.0060 hc        1 MOL      0.091393
     18 H7         -7.2950   -0.8080    3.4000 hc        1 MOL      0.091393
     19 N2         -6.5270   -2.0970   -0.0800 n         1 MOL      0.032918
     20 C7         -6.1270   -3.3760   -0.6200 c3        1 MOL     -0.106831
     21 C8         -4.6280   -3.7110   -0.4560 c         1 MOL      0.614794
     22 O5         -4.2190   -4.7460   -0.0620 o         1 MOL     -0.554419
     23 C9         -6.7010   -3.4660   -2.0720 c3        1 MOL      0.164319
     24 C10        -8.1870   -3.1420   -2.1140 c3        1 MOL     -0.037923
     25 C11        -8.7660   -3.7580   -3.4040 c3        1 MOL     -0.245229
     26 C12       -10.2120   -3.2920   -3.6820 c3        1 MOL      0.078540
     27 N3        -10.7790   -3.8420   -4.9500 n4        1 MOL     -0.296372
     28 H8         -6.4990   -1.2250   -0.5840 hn        1 MOL      0.120308
     29 H9         -6.6660   -4.0320    0.0600 h1        1 MOL      0.050533
     30 H10        -6.5730   -4.4790   -2.4510 hc        1 MOL     -0.047733
     31 H11        -6.1120   -2.8500   -2.7520 hc        1 MOL     -0.047733
     32 H12        -8.3030   -2.0600   -2.1010 hc        1 MOL      0.059751
     33 H13        -8.7070   -3.5570   -1.2530 hc        1 MOL      0.059751
     34 H14        -8.7000   -4.8430   -3.2630 hc        1 MOL      0.091591
     35 H15        -8.1660   -3.6010   -4.3080 hc        1 MOL      0.091591
     36 H16       -10.2120   -2.2010   -3.6700 hx        1 MOL      0.077237
     37 H17       -10.7830   -3.4810   -2.7650 hx        1 MOL      0.077237
     38 H18       -10.1250   -3.7440   -5.7240 hn        1 MOL      0.268443
     39 H19       -10.9260   -4.8360   -4.8670 hn        1 MOL      0.268443
     40 H20       -11.6430   -3.4190   -5.2530 hn        1 MOL      0.268443
     41 N4         -3.7330   -2.9710   -0.9770 n         1 MOL     -0.493243
     42 C13        -3.6590   -1.5550   -1.4160 c3        1 MOL      0.277743
     43 C14        -3.9170   -0.4950   -0.3480 c         1 MOL      0.083413
     44 O6         -3.8370   -0.7190    0.8760 o         1 MOL     -0.427276
     45 C15        -2.3370   -1.3550   -2.2060 c3        1 MOL     -0.653116
     46 C16        -1.1730   -1.8480   -1.3220 c         1 MOL      0.835239
     47 O7         -0.5260   -1.0490   -0.6220 o         1 MOL     -0.654446
     48 O8         -0.7870   -3.0600   -1.4450 o         1 MOL     -0.654446
     49 H21        -2.7970   -3.3470   -0.8860 hn        1 MOL      0.306132
     50 H22        -4.4490   -1.2950   -2.1320 h1        1 MOL      0.071953
     51 H23        -2.1800   -0.3400   -2.5760 hc        1 MOL      0.168739
     52 H24        -2.2780   -2.0370   -3.0630 hc        1 MOL      0.168739
     53 N5         -4.0840    0.7880   -0.7890 n         1 MOL     -0.118185
     54 C17        -4.1490    2.0430   -0.0700 c3        1 MOL     -0.069012
     55 C18        -2.8400    2.3850    0.7130 c         1 MOL      0.687149
     56 O9         -1.8110    1.6670    0.6820 o         1 MOL     -0.631834
     57 H25        -4.1500    0.8140   -1.8010 hn        1 MOL      0.211454
     58 H26        -4.9540    2.0270    0.6580 h1        1 MOL      0.076583
     59 H27        -4.4440    2.8560   -0.7360 h1        1 MOL      0.076583
     60 N6         -2.9430    3.4730    1.4830 n         1 MOL     -0.535409
     61 C19        -1.8620    3.9020    2.4160 c3        1 MOL      0.242029
     62 C20        -2.1180    5.4060    2.8250 c         1 MOL      0.347887
     63 O10        -3.3230    5.8410    2.9270 o         1 MOL     -0.507662
     64 C21        -1.9820    3.0430    3.7380 c3        1 MOL     -0.214613
     65 C22        -0.7650    2.1780    3.9130 c         1 MOL      0.711422
     66 O11         0.1340    2.2370    2.9930 o         1 MOL     -0.697404
     67 O12        -0.6270    1.4000    4.8740 o         1 MOL     -0.697404
     68 H28        -3.7380    4.0660    1.2880 hn        1 MOL      0.286179
     69 H29        -0.8980    3.8380    1.9340 h1        1 MOL      0.066920
     70 H30        -2.8330    2.3640    3.6400 hc        1 MOL      0.085221
     71 H31        -2.1390    3.5100    4.7120 hc        1 MOL      0.085221
     72 N7         -1.0510    6.1560    3.1860 n         1 MOL     -0.402491
     73 C23         0.3900    5.8950    3.1500 c3        1 MOL      0.004378
     74 C24         0.9040    5.7320    1.6710 c         1 MOL      0.553891
     75 O13         0.3300    6.2610    0.7140 o         1 MOL     -0.519568
     76 H32        -1.2970    7.0340    3.6110 hn        1 MOL      0.302140
     77 H33         0.5790    5.0200    3.7710 h1        1 MOL      0.066659
     78 H34         0.9880    6.7100    3.5700 h1        1 MOL      0.066659
     79 N8          2.0190    5.0530    1.5830 n         1 MOL     -0.564558
     80 C25         2.5660    4.6850    0.2520 c3        1 MOL      0.131092
     81 C26         1.6310    3.6600   -0.4180 c         1 MOL      0.585703
     82 O14         1.0070    2.8230    0.2440 o         1 MOL     -0.627664
     83 C27         4.1000    4.3460    0.3330 c3        1 MOL      0.341474
     84 C28         4.9500    5.6160    0.5710 c3        1 MOL     -0.248702
     85 O15         4.7190    3.6280   -0.7250 oh        1 MOL     -0.688810
     86 H35         2.5120    4.7070    2.3930 hn        1 MOL      0.316044
     87 H36         2.4380    5.5370   -0.4040 h1        1 MOL      0.039149
     88 H37         4.1670    3.7980    1.2790 h1        1 MOL     -0.030629
     89 H38         5.5740    3.3470   -0.4100 ho        1 MOL      0.421942
     90 H39         6.0230    5.3890    0.6520 hc        1 MOL      0.066066
     91 H40         4.8490    6.3180   -0.2450 hc        1 MOL      0.066066
     92 H41         4.5850    6.0900    1.4840 hc        1 MOL      0.066066
     93 N9          1.6390    3.7800   -1.7220 n         1 MOL     -0.328139
     94 C29         0.9100    2.8620   -2.6610 c3        1 MOL      0.002759
     95 C30         1.4550    1.4930   -2.4370 c         1 MOL      0.280920
     96 O16         1.0620    0.8760   -1.4220 o         1 MOL     -0.420203
     97 C31        -0.6440    3.0620   -2.7450 c3        1 MOL      0.425768
     98 C32        -1.2350    4.4230   -3.1530 c3        1 MOL     -0.421303
     99 C33        -1.0110    2.1600   -3.9540 c3        1 MOL     -0.468424
    100 C34        -1.5550    5.3810   -2.0570 c3        1 MOL      0.184525
    101 H42         2.2280    4.4620   -2.1820 hn        1 MOL      0.252944
    102 H43         1.1880    3.1830   -3.6690 h1        1 MOL      0.043774
    103 H44        -1.0990    2.6460   -1.8500 hc        1 MOL     -0.087072
    104 H45        -2.2540    4.3400   -3.5260 hc        1 MOL      0.094082
    105 H46        -0.5250    4.8420   -3.8560 hc        1 MOL      0.094082
    106 H47        -2.0910    2.0100   -3.9640 hc        1 MOL      0.107209
    107 H48        -0.5990    2.5770   -4.8730 hc        1 MOL      0.107209
    108 H49        -0.7480    1.1250   -3.7570 hc        1 MOL      0.107209
    109 H50        -2.2320    4.9850   -1.3030 hc        1 MOL     -0.027407
    110 H51        -0.6250    5.7490   -1.6220 hc        1 MOL     -0.027407
    111 H52        -2.1130    6.2390   -2.4190 hc        1 MOL     -0.027407
    112 N10         2.3160    1.0890   -3.2810 n         1 MOL     -0.250441
    113 C35         2.7560   -0.2580   -3.2750 c3        1 MOL     -0.005859
    114 C36         4.2780   -0.5000   -3.4890 c         1 MOL      0.499947
    115 O17         4.7290   -1.5910   -3.8430 o         1 MOL     -0.552144
    116 C37         1.8410   -1.2080   -4.1190 c3        1 MOL      0.363853
    117 C38         1.9540   -0.8380   -5.5610 c3        1 MOL     -0.446360
    118 O18         0.4750   -0.9880   -3.6940 oh        1 MOL     -0.452054
    119 H53         2.6960    1.7420   -3.9500 hn        1 MOL      0.237110
    120 H54         2.6630   -0.6270   -2.2510 h1        1 MOL      0.114745
    121 H55         2.1530   -2.2200   -3.8800 h1        1 MOL      0.031064
    122 H56         0.4330   -0.8600   -2.7450 ho        1 MOL      0.201028
    123 H57         1.4210   -1.5310   -6.2110 hc        1 MOL      0.112957
    124 H58         1.4770    0.1350   -5.6730 hc        1 MOL      0.112957
    125 H59         2.9840   -0.6390   -5.8640 hc        1 MOL      0.112957
    126 N11         5.1210    0.4710   -3.0920 n         1 MOL     -0.340053
    127 C39         6.5650    0.2270   -3.0390 c3        1 MOL     -0.165890
    128 C40         7.0100   -0.5350   -1.7940 c         1 MOL      0.631122
    129 O19         7.4520    0.0500   -0.8460 o         1 MOL     -0.533803
    130 C41         7.3180    1.6030   -3.1720 c3        1 MOL      0.485181
    131 C42         8.7950    1.2410   -3.4780 c3        1 MOL     -0.447480
    132 O20         6.9120    2.3740   -4.2550 oh        1 MOL     -0.618784
    133 H60         4.6710    1.3440   -2.8570 hn        1 MOL      0.204329
    134 H61         6.7260   -0.2970   -3.9780 h1        1 MOL      0.129365
    135 H62         7.2880    2.2060   -2.2750 h1        1 MOL     -0.015924
    136 H63         6.0420    2.7520   -4.1320 ho        1 MOL      0.378770
    137 H64         9.2410    0.6520   -2.6820 hc        1 MOL      0.119975
    138 H65         8.8150    0.7390   -4.4490 hc        1 MOL      0.119975
    139 H66         9.3670    2.1600   -3.4680 hc        1 MOL      0.119975
    140 N12         6.7280   -1.8560   -1.7870 n         1 MOL     -0.783396
    141 C43         6.6970   -2.6970   -0.5280 c3        1 MOL      0.441130
    142 C44         5.4740   -2.3030    0.2830 c         1 MOL      0.639767
    143 O21         4.9420   -1.1710    0.2270 o         1 MOL     -0.529817
    144 C45         7.9090   -2.6410    0.3600 c3        1 MOL     -0.252485
    145 C46         9.2820   -3.0050   -0.2560 c3        1 MOL     -0.101114
    146 C47        10.3770   -3.5590    0.7210 c3        1 MOL     -0.027884
    147 C48        10.6300   -2.4600    1.6910 c3        1 MOL      0.055034
    148 N13        11.7610   -2.8630    2.6230 n4        1 MOL     -0.130783
    149 H67         6.2820   -2.2400   -2.6100 hn        1 MOL      0.374930
    150 H68         6.5570   -3.7610   -0.7280 h1        1 MOL      0.002397
    151 H69         7.6690   -3.3530    1.1540 hc        1 MOL      0.080083
    152 H70         7.8950   -1.6370    0.7950 hc        1 MOL      0.080083
    153 H71         9.7060   -2.1660   -0.8020 hc        1 MOL      0.065948
    154 H72         9.0190   -3.7930   -0.9630 hc        1 MOL      0.065948
    155 H73        11.2270   -3.9130    0.1330 hc        1 MOL      0.044484
    156 H74         9.9980   -4.4270    1.2610 hc        1 MOL      0.044484
    157 H75         9.7950   -2.2520    2.3510 hx        1 MOL      0.071969
    158 H76        11.0500   -1.6060    1.1700 hx        1 MOL      0.071969
    159 H77        11.5100   -2.9660    3.5940 hn        1 MOL      0.188197
    160 H78        12.1870   -3.7080    2.2690 hn        1 MOL      0.188197
    161 H79        12.5220   -2.2000    2.6370 hn        1 MOL      0.188197
    162 N14         4.8980   -3.2310    1.0350 n         1 MOL     -0.897247
    163 C49         3.8150   -3.0140    2.0290 c3        1 MOL      0.545021
    164 C50         2.4980   -2.7330    1.4280 c         1 MOL      0.181016
    165 O22         1.8190   -1.8170    1.8320 o         1 MOL     -0.524840
    166 C51         3.8310   -4.1310    3.1320 c3        1 MOL     -0.131335
    167 C52         2.8690   -3.9300    4.3170 c3        1 MOL     -0.294499
    168 C53         3.0820   -5.0700    5.3280 c         1 MOL      0.736466
    169 O23         3.5910   -4.8130    6.4610 o         1 MOL     -0.629740
    170 O24         2.6780   -6.2320    5.1680 o         1 MOL     -0.629740
    171 H80         5.2810   -4.1630    1.0720 hn        1 MOL      0.341257
    172 H81         4.0280   -2.1130    2.6020 h1        1 MOL      0.030084
    173 H82         4.7990   -4.1690    3.6330 hc        1 MOL      0.033042
    174 H83         3.6150   -5.0970    2.6970 hc        1 MOL      0.033042
    175 H84         1.8550   -3.9880    3.9090 hc        1 MOL      0.089313
    176 H85         3.0030   -2.9040    4.6400 hc        1 MOL      0.089313
    177 N15         1.9660   -3.4840    0.4350 n         1 MOL     -0.003151
    178 C54         2.4500   -4.6990   -0.0710 c3        1 MOL     -0.100880
    179 H86         3.1680   -4.5000   -0.8680 h1        1 MOL      0.054136
    180 H87         2.9400   -5.2560    0.7270 h1        1 MOL      0.054136
    181 H88         1.6200   -5.2830   -0.4690 h1        1 MOL      0.054136
    182 H89         1.0840   -3.1160    0.1030 hn        1 MOL      0.140225
    183 Ca1         0.4850    0.4460    1.2020 Ca        1 MOL      1.777121
    184 O25         3.1620    0.9310    1.0110 oh        1 MOL     -0.915553
    185 H90         3.5320    1.6470    1.5240 ho        1 MOL      0.430650
    186 H91         3.9310    0.4490    0.6830 ho        1 MOL      0.430650
    187 O26        -1.4560   -1.1080    2.2130 oh        1 MOL     -0.915553
    188 H92        -2.1940   -1.2980    1.6220 ho        1 MOL      0.430650
    189 H93        -1.8430   -1.1300    3.0860 ho        1 MOL      0.430650
    190 O27         1.1760   -0.3230    3.9980 oh        1 MOL     -0.915553
    191 H94         0.5720    0.3100    4.3920 ho        1 MOL      0.430650
    192 H95         0.8710   -1.1690    4.3290 ho        1 MOL      0.430650
@<TRIPOS>BOND
     1    1    2 1   
     2    1    4 1   
     3    1    5 1   
     4    1    6 1   
     5    2    3 2   
     6    2    7 1   
     7    7    8 1   
     8    7   15 1   
     9    8    9 1   
    10    8   11 1   
    11    8   16 1   
    12    9   10 2   
    13    9   19 1   
    14   11   12 1   
    15   11   17 1   
    16   11   18 1   
    17   12   13 1   
    18   12   14 1   
    19   19   20 1   
    20   19   28 1   
    21   20   21 1   
    22   20   23 1   
    23   20   29 1   
    24   21   22 2   
    25   21   41 1   
    26   23   24 1   
    27   23   30 1   
    28   23   31 1   
    29   24   25 1   
    30   24   32 1   
    31   24   33 1   
    32   25   26 1   
    33   25   34 1   
    34   25   35 1   
    35   26   27 1   
    36   26   36 1   
    37   26   37 1   
    38   27   38 1   
    39   27   39 1   
    40   27   40 1   
    41   41   42 1   
    42   41   49 1   
    43   42   43 1   
    44   42   45 1   
    45   42   50 1   
    46   43   44 2   
    47   43   53 1   
    48   45   46 1   
    49   45   51 1   
    50   45   52 1   
    51   46   47 1   
    52   46   48 1   
    53   53   54 1   
    54   53   57 1   
    55   54   55 1   
    56   54   58 1   
    57   54   59 1   
    58   55   56 2   
    59   55   60 1   
    60   60   61 1   
    61   60   68 1   
    62   61   62 1   
    63   61   64 1   
    64   61   69 1   
    65   62   63 2   
    66   62   72 1   
    67   64   65 1   
    68   64   70 1   
    69   64   71 1   
    70   65   66 1   
    71   65   67 1   
    72   72   73 1   
    73   72   76 1   
    74   73   74 1   
    75   73   77 1   
    76   73   78 1   
    77   74   75 2   
    78   74   79 1   
    79   79   80 1   
    80   79   86 1   
    81   80   81 1   
    82   80   83 1   
    83   80   87 1   
    84   81   82 2   
    85   81   93 1   
    86   83   84 1   
    87   83   85 1   
    88   83   88 1   
    89   84   90 1   
    90   84   91 1   
    91   84   92 1   
    92   85   89 1   
    93   93   94 1   
    94   93  101 1   
    95   94   95 1   
    96   94   97 1   
    97   94  102 1   
    98   95   96 2   
    99   95  112 1   
   100   97   98 1   
   101   97   99 1   
   102   97  103 1   
   103   98  100 1   
   104   98  104 1   
   105   98  105 1   
   106   99  106 1   
   107   99  107 1   
   108   99  108 1   
   109  100  109 1   
   110  100  110 1   
   111  100  111 1   
   112  112  113 1   
   113  112  119 1   
   114  113  114 1   
   115  113  116 1   
   116  113  120 1   
   117  114  115 2   
   118  114  126 1   
   119  116  117 1   
   120  116  118 1   
   121  116  121 1   
   122  117  123 1   
   123  117  124 1   
   124  117  125 1   
   125  118  122 1   
   126  126  127 1   
   127  126  133 1   
   128  127  128 1   
   129  127  130 1   
   130  127  134 1   
   131  128  129 2   
   132  128  140 1   
   133  130  131 1   
   134  130  132 1   
   135  130  135 1   
   136  131  137 1   
   137  131  138 1   
   138  131  139 1   
   139  132  136 1   
   140  140  141 1   
   141  140  149 1   
   142  141  142 1   
   143  141  144 1   
   144  141  150 1   
   145  142  143 2   
   146  142  162 1   
   147  144  145 1   
   148  144  151 1   
   149  144  152 1   
   150  145  146 1   
   151  145  153 1   
   152  145  154 1   
   153  146  147 1   
   154  146  155 1   
   155  146  156 1   
   156  147  148 1   
   157  147  157 1   
   158  147  158 1   
   159  148  159 1   
   160  148  160 1   
   161  148  161 1   
   162  162  163 1   
   163  162  171 1   
   164  163  164 1   
   165  163  166 1   
   166  163  172 1   
   167  164  165 2   
   168  164  177 1   
   169  166  167 1   
   170  166  173 1   
   171  166  174 1   
   172  167  168 1   
   173  167  175 1   
   174  167  176 1   
   175  168  169 1   
   176  168  170 1   
   177  177  178 1   
   178  177  182 1   
   179  178  179 1   
   180  178  180 1   
   181  178  181 1   
   182  184  185 1   
   183  184  186 1   
   184  187  188 1   
   185  187  189 1   
   186  190  191 1   
   187  190  192 1   
@<TRIPOS>SUBSTRUCTURE
     1 MOL         1 TEMP              0 ****  ****    0 ROOT
