@<TRIPOS>MOLECULE
MOL
  192   187     1     0     0
SMALL
resp


@<TRIPOS>ATOM
      1 C1         -3.8670   -7.4990    0.0610 c3        1 MOL     -0.312665
      2 C2         -3.8300   -5.9600   -0.1520 c         1 MOL      0.565042
      3 O1         -3.7600   -5.4990   -1.2820 o         1 MOL     -0.556471
      4 H1         -4.3610   -7.9700   -0.7870 hc        1 MOL      0.080898
      5 H2         -2.8490   -7.8790    0.1450 hc        1 MOL      0.080898
      6 H3         -4.4170   -7.7260    0.9750 hc        1 MOL      0.080898
      7 N1         -3.9770   -5.2060    0.9170 n         1 MOL     -0.299777
      8 C3         -4.0340   -3.8000    0.7550 c3        1 MOL      0.024846
      9 C4         -2.6920   -3.0720    0.8260 c         1 MOL      0.567780
     10 O2         -2.5800   -1.8060    0.7240 o         1 MOL     -0.567852
     11 C5         -5.1560   -3.1990    1.6590 c3        1 MOL     -0.224511
     12 C6         -4.8260   -3.2820    3.1630 c         1 MOL      0.705429
     13 O3         -4.4890   -4.4100    3.5540 o         1 MOL     -0.718732
     14 O4         -4.8800   -2.2610    3.8600 o         1 MOL     -0.718732
     15 H4         -4.1360   -5.6230    1.8220 hn        1 MOL      0.239621
     16 H5         -4.3990   -3.5640   -0.2440 h1        1 MOL      0.063833
     17 H6         -6.0750   -3.7350    1.4160 hc        1 MOL      0.038911
     18 H7         -5.2710   -2.1620    1.3570 hc        1 MOL      0.038911
     19 N2         -1.5560   -3.7970    1.0800 n         1 MOL     -0.520399
     20 C7         -0.1890   -3.1860    1.0730 c3        1 MOL      0.286625
     21 C8          0.4800   -3.4970   -0.2980 c         1 MOL      0.436873
     22 O5          0.0660   -4.3090   -1.0370 o         1 MOL     -0.498074
     23 C9          0.5180   -3.8200    2.3160 c3        1 MOL     -0.015893
     24 C10         0.0580   -3.0650    3.5690 c3        1 MOL      0.039621
     25 C11         0.9480   -3.4880    4.7480 c3        1 MOL     -0.002184
     26 C12         0.3170   -3.0380    6.0580 c3        1 MOL      0.049133
     27 N3          1.1530   -3.3480    7.1800 n4        1 MOL     -0.292796
     28 H8         -1.7500   -4.7450    1.4040 hn        1 MOL      0.240069
     29 H9         -0.1870   -2.1080    1.2070 h1        1 MOL      0.069476
     30 H10         1.5970   -3.8020    2.2170 hc        1 MOL      0.004524
     31 H11         0.2820   -4.8820    2.3660 hc        1 MOL      0.004524
     32 H12        -0.9530   -3.3600    3.8580 hc        1 MOL      0.032575
     33 H13         0.0190   -1.9920    3.4050 hc        1 MOL      0.032575
     34 H14         1.8980   -2.9870    4.5890 hc        1 MOL      0.013215
     35 H15         1.0420   -4.5790    4.7470 hc        1 MOL      0.013215
     36 H16        -0.6020   -3.6080    6.1620 hx        1 MOL      0.077042
     37 H17         0.1570   -1.9640    5.9960 hx        1 MOL      0.077042
     38 H18         1.9780   -2.7800    7.1950 hn        1 MOL      0.307633
     39 H19         0.6610   -3.1230    8.0330 hn        1 MOL      0.307633
     40 H20         1.4420   -4.3200    7.2520 hn        1 MOL      0.307633
     41 N4          1.4350   -2.6180   -0.7680 n         1 MOL     -0.470942
     42 C13         1.9640   -1.3270   -0.3170 c3        1 MOL      0.069952
     43 C14         2.6460   -1.2280    1.0790 c         1 MOL      0.481925
     44 O6          2.0640   -0.7450    2.0370 o         1 MOL     -0.540980
     45 C15         0.9070   -0.2360   -0.4660 c3        1 MOL     -0.022439
     46 C16         0.2240   -0.1120   -1.8040 c         1 MOL      0.673016
     47 O7         -1.0130    0.1880   -1.9090 o         1 MOL     -0.708881
     48 O8          0.8430   -0.3510   -2.8250 o         1 MOL     -0.708881
     49 H21         1.6140   -2.8700   -1.7300 hn        1 MOL      0.282861
     50 H22         2.7320   -1.0080   -1.0090 h1        1 MOL      0.076559
     51 H23         1.4420    0.7030   -0.3170 hc        1 MOL      0.014027
     52 H24         0.1870   -0.2560    0.3410 hc        1 MOL      0.014027
     53 N5          3.8620   -1.7330    1.3590 n         1 MOL     -0.391116
     54 C17         4.7910   -2.3960    0.4470 c3        1 MOL      0.131234
     55 C18         5.8840   -3.2790    1.0930 c         1 MOL      0.515611
     56 O9          5.7630   -3.7040    2.2470 o         1 MOL     -0.547305
     57 H25         4.0900   -1.7590    2.3440 hn        1 MOL      0.275252
     58 H26         5.1640   -1.6470   -0.2530 h1        1 MOL     -0.026477
     59 H27         4.1090   -3.0010   -0.1610 h1        1 MOL     -0.026477
     60 N6          6.8410   -3.7300    0.2590 n         1 MOL     -0.415265
     61 C19         7.3770   -3.3460   -1.0220 c3        1 MOL      0.018899
     62 C20         7.8930   -1.8650   -0.8240 c         1 MOL      0.530583
     63 O10         8.2540   -1.4000    0.2270 o         1 MOL     -0.453983
     64 C21         8.6600   -4.1680   -1.3520 c3        1 MOL     -0.098099
     65 C22         9.4910   -4.5840   -0.1390 c         1 MOL      0.681090
     66 O11        10.6680   -4.0830   -0.0040 o         1 MOL     -0.653399
     67 O12         9.0160   -5.4150    0.6600 o         1 MOL     -0.653399
     68 H28         7.3000   -4.5230    0.6780 hn        1 MOL      0.270454
     69 H29         6.6830   -3.4520   -1.8570 h1        1 MOL      0.018555
     70 H30         9.1470   -3.5680   -2.1190 hc        1 MOL      0.002494
     71 H31         8.4710   -5.1340   -1.8280 hc        1 MOL      0.002494
     72 N7          7.8350   -1.1270   -1.9570 n         1 MOL     -0.323609
     73 C23         8.3820    0.2430   -2.0360 c3        1 MOL     -0.166179
     74 C24         7.3580    1.3370   -1.9750 c         1 MOL      0.514933
     75 O13         7.7400    2.5020   -1.7560 o         1 MOL     -0.542192
     76 H32         7.5010   -1.5600   -2.8050 hn        1 MOL      0.230628
     77 H33         9.0230    0.3480   -2.9020 h1        1 MOL      0.126396
     78 H34         9.0850    0.2880   -1.2000 h1        1 MOL      0.126396
     79 N8          6.0590    1.0090   -2.2050 n         1 MOL     -0.451926
     80 C25         4.9040    1.9290   -1.9240 c3        1 MOL      0.257447
     81 C26         4.7610    2.2150   -0.4460 c         1 MOL      0.742342
     82 O14         4.9980    1.2680    0.3590 o         1 MOL     -0.540720
     83 C27         3.6800    1.3980   -2.6410 c3        1 MOL      0.320895
     84 C28         3.7140    1.6460   -4.1610 c3        1 MOL     -0.244966
     85 O15         2.4800    1.9000   -2.1410 oh        1 MOL     -0.718157
     86 H35         5.8740    0.0250   -2.2260 hn        1 MOL      0.185123
     87 H36         5.2950    2.8310   -2.3920 h1        1 MOL     -0.002895
     88 H37         3.6450    0.3550   -2.3260 h1        1 MOL     -0.045465
     89 H38         1.7970    1.3460   -2.5310 ho        1 MOL      0.469033
     90 H39         3.5300    2.6830   -4.4470 hc        1 MOL      0.049123
     91 H40         4.7010    1.3540   -4.5200 hc        1 MOL      0.049123
     92 H41         2.9880    1.0120   -4.6760 hc        1 MOL      0.049123
     93 N9          4.4580    3.4920   -0.0510 n         1 MOL     -0.673377
     94 C29         4.3640    3.9180    1.4070 c3        1 MOL     -0.177378
     95 C30         3.0650    4.1160    2.1260 c         1 MOL      0.491139
     96 O16         2.9560    4.2900    3.3640 o         1 MOL     -0.547744
     97 C31         5.3580    5.0590    1.7490 c3        1 MOL      0.269288
     98 C32         5.0040    6.3570    0.9400 c3        1 MOL      0.057125
     99 C33         6.7900    4.7390    1.4700 c3        1 MOL     -0.181795
    100 C34         5.4670    7.6580    1.6210 c3        1 MOL     -0.260657
    101 H42         4.2830    4.1910   -0.7560 hn        1 MOL      0.311846
    102 H43         4.8190    3.0740    1.9230 h1        1 MOL      0.156721
    103 H44         5.4100    5.2480    2.8270 hc        1 MOL     -0.013823
    104 H45         3.9200    6.3430    0.8810 hc        1 MOL     -0.003399
    105 H46         5.4540    6.2800   -0.0500 hc        1 MOL     -0.003399
    106 H47         7.0380    3.8760    2.0840 hc        1 MOL      0.047186
    107 H48         6.9590    4.4680    0.4330 hc        1 MOL      0.047186
    108 H49         7.4440    5.5810    1.6800 hc        1 MOL      0.047186
    109 H50         5.0120    8.4700    1.0600 hc        1 MOL      0.063981
    110 H51         5.2400    7.6620    2.6860 hc        1 MOL      0.063981
    111 H52         6.5630    7.7210    1.6110 hc        1 MOL      0.063981
    112 N10         1.9620    4.0640    1.3380 n         1 MOL     -0.099683
    113 C35         0.6080    4.1390    1.8940 c3        1 MOL     -0.396721
    114 C36        -0.3840    3.3440    1.1010 c         1 MOL      0.646957
    115 O17        -0.2090    3.2290   -0.0790 o         1 MOL     -0.488717
    116 C37         0.1520    5.6020    2.2330 c3        1 MOL      0.361292
    117 C38         0.2720    6.5840    1.0900 c3        1 MOL     -0.130114
    118 O18         0.9540    6.2460    3.1720 oh        1 MOL     -0.594170
    119 H53         2.0660    4.2290    0.3440 hn        1 MOL      0.228468
    120 H54         0.5820    3.6030    2.8460 h1        1 MOL      0.157386
    121 H55        -0.8800    5.5850    2.5620 h1        1 MOL     -0.007636
    122 H56         1.4920    5.5170    3.4800 ho        1 MOL      0.355401
    123 H57        -0.1060    7.5680    1.3280 hc        1 MOL      0.034211
    124 H58         1.3050    6.6830    0.7530 hc        1 MOL      0.034211
    125 H59        -0.3690    6.3400    0.2440 hc        1 MOL      0.034211
    126 N11        -1.4760    2.8730    1.6900 n         1 MOL     -0.503978
    127 C39        -2.5370    2.0100    1.1570 c3        1 MOL      0.158512
    128 C40        -3.7930    2.7950    0.6800 c         1 MOL      0.542649
    129 O19        -3.8660    4.0040    0.9900 o         1 MOL     -0.556777
    130 C41        -2.9510    1.0620    2.2070 c3        1 MOL      0.498446
    131 C42        -3.5280    1.6990    3.4600 c3        1 MOL     -0.660004
    132 O20        -1.6990    0.3770    2.4460 oh        1 MOL     -0.604297
    133 H60        -1.5530    3.1870    2.6490 hn        1 MOL      0.255364
    134 H61        -2.0900    1.5110    0.2940 h1        1 MOL     -0.053943
    135 H62        -3.6820    0.3810    1.7670 h1        1 MOL      0.005698
    136 H63        -1.7580   -0.3200    1.7980 ho        1 MOL      0.298388
    137 H64        -4.3680    2.3760    3.3250 hc        1 MOL      0.164927
    138 H65        -3.8010    0.8620    4.1010 hc        1 MOL      0.164927
    139 H66        -2.7480    2.2910    3.9290 hc        1 MOL      0.164927
    140 N12        -4.7620    2.1110    0.0310 n         1 MOL     -0.209147
    141 C43        -6.0730    2.6740   -0.4090 c3        1 MOL     -0.233478
    142 C44        -6.6130    1.8130   -1.5630 c         1 MOL      0.743887
    143 O21        -7.7660    1.9920   -1.9460 o         1 MOL     -0.583670
    144 C45        -7.1790    2.8210    0.7320 c3        1 MOL     -0.055139
    145 C46        -7.3670    1.5890    1.6230 c3        1 MOL      0.004322
    146 C47        -8.2990    1.8660    2.7640 c3        1 MOL     -0.024806
    147 C48        -7.7420    2.7430    3.8800 c3        1 MOL      0.142483
    148 N13        -8.4500    2.5560    5.1750 n4        1 MOL     -0.403441
    149 H67        -4.5630    1.1450   -0.2020 hn        1 MOL      0.166891
    150 H68        -5.9980    3.6830   -0.8130 h1        1 MOL      0.194368
    151 H69        -8.1090    3.2250    0.3110 hc        1 MOL      0.035090
    152 H70        -6.8340    3.5790    1.4340 hc        1 MOL      0.035090
    153 H71        -6.3860    1.2990    1.9940 hc        1 MOL      0.012274
    154 H72        -7.7590    0.7890    1.0040 hc        1 MOL      0.012274
    155 H73        -8.7140    0.9120    3.1170 hc        1 MOL      0.037048
    156 H74        -9.1710    2.3940    2.3770 hc        1 MOL      0.037048
    157 H75        -7.6650    3.8080    3.6250 hx        1 MOL      0.048975
    158 H76        -6.7290    2.4260    4.1080 hx        1 MOL      0.048975
    159 H77        -9.4490    2.4810    5.0460 hn        1 MOL      0.305714
    160 H78        -8.1730    1.6720    5.5850 hn        1 MOL      0.305714
    161 H79        -8.2990    3.3080    5.8390 hn        1 MOL      0.305714
    162 N14        -5.9230    0.7850   -2.1230 n         1 MOL     -0.543285
    163 C49        -6.4810   -0.0700   -3.1480 c3        1 MOL      0.018192
    164 C50        -6.8840   -1.5020   -2.7010 c         1 MOL      0.578592
    165 O22        -6.1590   -2.1570   -2.0130 o         1 MOL     -0.475060
    166 C51        -5.6320   -0.1050   -4.3900 c3        1 MOL      0.048942
    167 C52        -5.3060    1.3360   -4.9570 c3        1 MOL     -0.309045
    168 C53        -4.1640    2.0610   -4.1930 c         1 MOL      0.530995
    169 O23        -3.0200    1.5080   -4.2370 o         1 MOL     -0.633345
    170 O24        -4.3430    3.1780   -3.6910 o         1 MOL     -0.633345
    171 H80        -4.9410    0.6620   -1.9350 hn        1 MOL      0.341446
    172 H81        -7.4620    0.2870   -3.4540 h1        1 MOL      0.068923
    173 H82        -6.1040   -0.6990   -5.1760 hc        1 MOL     -0.050767
    174 H83        -4.7010   -0.6150   -4.1570 hc        1 MOL     -0.050767
    175 H84        -6.2210    1.9130   -5.0090 hc        1 MOL      0.108596
    176 H85        -4.9810    1.1430   -5.9760 hc        1 MOL      0.108596
    177 N15        -7.9770   -2.0230   -3.1720 n         1 MOL     -0.411999
    178 C54        -8.7290   -3.1450   -2.6200 c3        1 MOL     -0.036307
    179 H86        -9.2870   -3.6360   -3.4180 h1        1 MOL      0.066510
    180 H87        -8.0390   -3.8590   -2.1690 h1        1 MOL      0.066510
    181 H88        -9.4240   -2.7820   -1.8630 h1        1 MOL      0.066510
    182 H89        -8.4750   -1.4690   -3.8610 hn        1 MOL      0.273365
    183 Ca1        -1.2410   -0.0930   -4.6120 Ca        1 MOL      1.729127
    184 O25        -2.5120   -2.0640   -3.2990 oh        1 MOL     -0.914601
    185 H90        -3.0460   -1.7600   -2.5650 ho        1 MOL      0.450503
    186 H91        -2.3790   -3.0020   -3.1270 ho        1 MOL      0.450503
    187 O26         1.1850   -0.5800   -5.6630 oh        1 MOL     -0.914601
    188 H92         1.5400   -0.2980   -6.5140 ho        1 MOL      0.450503
    189 H93         1.6080   -1.4160   -5.4870 ho        1 MOL      0.450503
    190 O27         0.1080    2.2310   -4.5310 oh        1 MOL     -0.914601
    191 H94         0.7330    2.6360   -5.1310 ho        1 MOL      0.450503
    192 H95        -0.2890    2.9640   -4.0520 ho        1 MOL      0.450503
@<TRIPOS>BOND
     1    1    2 1   
     2    1    4 1   
     3    1    5 1   
     4    1    6 1   
     5    2    3 2   
     6    2    7 1   
     7    7    8 1   
     8    7   15 1   
     9    8    9 1   
    10    8   11 1   
    11    8   16 1   
    12    9   10 2   
    13    9   19 1   
    14   11   12 1   
    15   11   17 1   
    16   11   18 1   
    17   12   13 1   
    18   12   14 1   
    19   19   20 1   
    20   19   28 1   
    21   20   21 1   
    22   20   23 1   
    23   20   29 1   
    24   21   22 2   
    25   21   41 1   
    26   23   24 1   
    27   23   30 1   
    28   23   31 1   
    29   24   25 1   
    30   24   32 1   
    31   24   33 1   
    32   25   26 1   
    33   25   34 1   
    34   25   35 1   
    35   26   27 1   
    36   26   36 1   
    37   26   37 1   
    38   27   38 1   
    39   27   39 1   
    40   27   40 1   
    41   41   42 1   
    42   41   49 1   
    43   42   43 1   
    44   42   45 1   
    45   42   50 1   
    46   43   44 2   
    47   43   53 1   
    48   45   46 1   
    49   45   51 1   
    50   45   52 1   
    51   46   47 1   
    52   46   48 1   
    53   53   54 1   
    54   53   57 1   
    55   54   55 1   
    56   54   58 1   
    57   54   59 1   
    58   55   56 2   
    59   55   60 1   
    60   60   61 1   
    61   60   68 1   
    62   61   62 1   
    63   61   64 1   
    64   61   69 1   
    65   62   63 2   
    66   62   72 1   
    67   64   65 1   
    68   64   70 1   
    69   64   71 1   
    70   65   66 1   
    71   65   67 1   
    72   72   73 1   
    73   72   76 1   
    74   73   74 1   
    75   73   77 1   
    76   73   78 1   
    77   74   75 2   
    78   74   79 1   
    79   79   80 1   
    80   79   86 1   
    81   80   81 1   
    82   80   83 1   
    83   80   87 1   
    84   81   82 2   
    85   81   93 1   
    86   83   84 1   
    87   83   85 1   
    88   83   88 1   
    89   84   90 1   
    90   84   91 1   
    91   84   92 1   
    92   85   89 1   
    93   93   94 1   
    94   93  101 1   
    95   94   95 1   
    96   94   97 1   
    97   94  102 1   
    98   95   96 2   
    99   95  112 1   
   100   97   98 1   
   101   97   99 1   
   102   97  103 1   
   103   98  100 1   
   104   98  104 1   
   105   98  105 1   
   106   99  106 1   
   107   99  107 1   
   108   99  108 1   
   109  100  109 1   
   110  100  110 1   
   111  100  111 1   
   112  112  113 1   
   113  112  119 1   
   114  113  114 1   
   115  113  116 1   
   116  113  120 1   
   117  114  115 2   
   118  114  126 1   
   119  116  117 1   
   120  116  118 1   
   121  116  121 1   
   122  117  123 1   
   123  117  124 1   
   124  117  125 1   
   125  118  122 1   
   126  126  127 1   
   127  126  133 1   
   128  127  128 1   
   129  127  130 1   
   130  127  134 1   
   131  128  129 2   
   132  128  140 1   
   133  130  131 1   
   134  130  132 1   
   135  130  135 1   
   136  131  137 1   
   137  131  138 1   
   138  131  139 1   
   139  132  136 1   
   140  140  141 1   
   141  140  149 1   
   142  141  142 1   
   143  141  144 1   
   144  141  150 1   
   145  142  143 2   
   146  142  162 1   
   147  144  145 1   
   148  144  151 1   
   149  144  152 1   
   150  145  146 1   
   151  145  153 1   
   152  145  154 1   
   153  146  147 1   
   154  146  155 1   
   155  146  156 1   
   156  147  148 1   
   157  147  157 1   
   158  147  158 1   
   159  148  159 1   
   160  148  160 1   
   161  148  161 1   
   162  162  163 1   
   163  162  171 1   
   164  163  164 1   
   165  163  166 1   
   166  163  172 1   
   167  164  165 2   
   168  164  177 1   
   169  166  167 1   
   170  166  173 1   
   171  166  174 1   
   172  167  168 1   
   173  167  175 1   
   174  167  176 1   
   175  168  169 1   
   176  168  170 1   
   177  177  178 1   
   178  177  182 1   
   179  178  179 1   
   180  178  180 1   
   181  178  181 1   
   182  184  185 1   
   183  184  186 1   
   184  187  188 1   
   185  187  189 1   
   186  190  191 1   
   187  190  192 1   
@<TRIPOS>SUBSTRUCTURE
     1 MOL         1 TEMP              0 ****  ****    0 ROOT
