@<TRIPOS>MOLECULE
MOL
  182   178     1     0     0
SMALL
resp


@<TRIPOS>ATOM
      1 C1          0.8370   -3.7340    6.3460 c3        1 MOL     -0.262964
      2 C2          0.9640   -3.4790    4.8420 c         1 MOL      0.742649
      3 O1         -0.0040   -3.6060    4.1170 o         1 MOL     -0.529990
      4 H1          1.1170   -4.7650    6.5640 hc        1 MOL      0.082156
      5 H2          1.4980   -3.0560    6.8870 hc        1 MOL      0.082156
      6 H3         -0.1930   -3.5640    6.6580 hc        1 MOL      0.082156
      7 N1          2.2220   -3.3990    4.2690 n         1 MOL     -0.728307
      8 C3          2.4430   -3.3570    2.8030 c3        1 MOL      0.342892
      9 C4          2.1780   -4.6120    1.9350 c         1 MOL      0.390093
     10 O2          2.2430   -5.7640    2.4950 o         1 MOL     -0.527977
     11 C5          3.7830   -2.6980    2.4760 c3        1 MOL      0.036996
     12 C6          3.6520   -1.6850    1.2990 c         1 MOL      0.650289
     13 O3          3.8870   -0.4560    1.4900 o         1 MOL     -0.726291
     14 O4          3.2470   -2.0350    0.1560 o         1 MOL     -0.726291
     15 H4          2.9930   -3.4960    4.9120 hn        1 MOL      0.342725
     16 H5          1.6850   -2.6440    2.4880 h1        1 MOL     -0.052174
     17 H6          4.6130   -3.3520    2.1910 hc        1 MOL     -0.010531
     18 H7          4.1130   -2.0550    3.2950 hc        1 MOL     -0.010531
     19 N2          1.9950   -4.3240    0.6530 n         1 MOL     -0.149825
     20 C7          1.8080   -5.2580   -0.4380 c3        1 MOL     -0.161254
     21 C8          2.7800   -5.0910   -1.5660 c         1 MOL      0.667978
     22 O5          2.9800   -6.0450   -2.2790 o         1 MOL     -0.626459
     23 C9          0.3150   -5.2360   -0.7450 c3        1 MOL      0.243408
     24 C10        -0.1630   -6.4410   -1.6310 c3        1 MOL     -0.015424
     25 C11        -1.6470   -6.6760   -1.6980 c3        1 MOL      0.039748
     26 C12        -1.8920   -7.6240   -2.9180 c3        1 MOL      0.200235
     27 N3         -3.3380   -7.6400   -3.2630 n4        1 MOL     -0.491806
     28 H8          2.0540   -3.3440    0.4270 hn        1 MOL     -0.050144
     29 H9          2.0860   -6.2460   -0.0510 h1        1 MOL      0.101946
     30 H10         0.0180   -4.2500   -1.1000 hc        1 MOL     -0.018427
     31 H11        -0.2230   -5.2910    0.2020 hc        1 MOL     -0.018427
     32 H12         0.3590   -7.3390   -1.2940 hc        1 MOL     -0.002350
     33 H13         0.2770   -6.0680   -2.5520 hc        1 MOL     -0.002350
     34 H14        -2.0160   -5.6780   -1.9550 hc        1 MOL     -0.008045
     35 H15        -2.0120   -7.1070   -0.7770 hc        1 MOL     -0.008045
     36 H16        -1.5010   -8.6280   -2.7800 hx        1 MOL      0.041739
     37 H17        -1.3490   -7.2150   -3.7590 hx        1 MOL      0.041739
     38 H18        -3.6750   -6.7040   -3.0770 hn        1 MOL      0.350545
     39 H19        -3.4340   -7.6600   -4.2680 hn        1 MOL      0.350545
     40 H20        -3.8330   -8.3290   -2.7030 hn        1 MOL      0.350545
     41 N4          3.3440   -3.9440   -1.8950 n         1 MOL     -0.153623
     42 C13         4.4590   -3.7320   -2.7600 c3        1 MOL     -0.003901
     43 C14         5.7260   -3.1610   -2.0620 c         1 MOL      0.477275
     44 O6          6.6810   -2.7370   -2.7110 o         1 MOL     -0.523875
     45 C15         4.1540   -2.6430   -3.8240 c3        1 MOL     -0.199886
     46 C16         3.6460   -1.3170   -3.1980 c         1 MOL      0.776952
     47 O7          4.3920   -0.6440   -2.4430 o         1 MOL     -0.730415
     48 O8          2.4500   -0.9350   -3.3520 o         1 MOL     -0.730415
     49 H21         3.1920   -3.1560   -1.2680 hn        1 MOL     -0.149313
     50 H22         4.7880   -4.6510   -3.2400 h1        1 MOL      0.123732
     51 H23         3.4070   -2.9410   -4.5570 hc        1 MOL      0.067366
     52 H24         5.1010   -2.5260   -4.3720 hc        1 MOL      0.067366
     53 N5          5.7690   -3.1460   -0.7040 n         1 MOL     -0.404557
     54 C17         6.9340   -2.8250    0.0680 c3        1 MOL     -0.035435
     55 C18         7.3320   -1.2850    0.2610 c         1 MOL      0.471992
     56 O9          8.2080   -1.1030    1.0390 o         1 MOL     -0.499527
     57 H25         4.9460   -3.4200   -0.1810 hn        1 MOL      0.327561
     58 H26         7.8380   -3.2070   -0.3880 h1        1 MOL      0.080639
     59 H27         6.9180   -3.3210    1.0410 h1        1 MOL      0.080639
     60 N6          6.6590   -0.2900   -0.4480 n         1 MOL     -0.156157
     61 C19         7.0960    1.0910   -0.3210 c3        1 MOL      0.031526
     62 C20         5.9210    2.1230   -0.2190 c         1 MOL      0.572770
     63 O10         4.7650    1.8680   -0.5130 o         1 MOL     -0.524091
     64 C21         8.0150    1.4680   -1.4630 c3        1 MOL     -0.213352
     65 C22         9.2760    0.6730   -1.5190 c         1 MOL      0.699788
     66 N7          9.2470   -0.5330   -1.9910 n         1 MOL     -0.807235
     67 O11        10.3140    1.1500   -1.1670 o         1 MOL     -0.582729
     68 H28         5.9460   -0.4960   -1.1270 hn        1 MOL      0.187098
     69 H29         7.5920    1.2690    0.6300 h1        1 MOL      0.042766
     70 H30         8.2690    2.5290   -1.3790 hc        1 MOL      0.046710
     71 H31         7.5370    1.3860   -2.4460 hc        1 MOL      0.046710
     72 H32         8.3710   -0.8990   -2.3330 hn        1 MOL      0.376809
     73 H33        10.1460   -0.9880   -2.0480 hn        1 MOL      0.376809
     74 N8          6.3040    3.3450    0.2850 n         1 MOL     -0.458658
     75 C23         5.6350    4.6610    0.3050 c3        1 MOL     -0.102042
     76 C24         4.3290    4.6210    1.0460 c         1 MOL      0.584264
     77 O12         4.2870    4.3260    2.2240 o         1 MOL     -0.482891
     78 H34         7.2910    3.4050    0.4950 hn        1 MOL      0.327921
     79 H35         5.4330    5.1260   -0.6670 h1        1 MOL      0.092403
     80 H36         6.2900    5.3760    0.7810 h1        1 MOL      0.092403
     81 N9          3.2220    4.9890    0.3390 n         1 MOL     -0.542828
     82 C25         1.7980    4.9010    0.8140 c3        1 MOL     -0.016924
     83 C26         1.5440    3.4250    1.1030 c         1 MOL      0.356615
     84 O13         2.2540    2.5230    0.7120 o         1 MOL     -0.393069
     85 C27         0.7950    5.6480   -0.1660 c3        1 MOL     -0.174982
     86 C28         1.3210    6.9400   -0.7040 ca        1 MOL      0.154950
     87 C29         1.5070    8.0940    0.1290 ca        1 MOL     -0.219139
     88 C30         1.4930    7.1120   -2.0970 ca        1 MOL     -0.219139
     89 C31         2.0090    9.2880   -0.4800 ca        1 MOL     -0.180729
     90 C32         1.8460    8.3060   -2.7280 ca        1 MOL     -0.180729
     91 C33         2.0910    9.3610   -1.8430 ca        1 MOL      0.258531
     92 O14         2.6650   10.4860   -2.4310 oh        1 MOL     -0.465228
     93 H37         3.3510    4.9470   -0.6550 hn        1 MOL      0.276838
     94 H38         1.7590    5.4440    1.7630 h1        1 MOL      0.177215
     95 H39        -0.1990    5.8660    0.2360 hc        1 MOL      0.076184
     96 H40         0.5940    5.0860   -1.0770 hc        1 MOL      0.076184
     97 H41         1.3350    7.9340    1.1860 ha        1 MOL      0.130613
     98 H42         1.2030    6.2780   -2.7250 ha        1 MOL      0.130613
     99 H43         2.3080   10.1300    0.1340 ha        1 MOL      0.158664
    100 H44         2.0130    8.4330   -3.7830 ha        1 MOL      0.158664
    101 H45         2.6860   11.2020   -1.7860 ho        1 MOL      0.348110
    102 N10         0.5060    3.1550    1.9320 n         1 MOL     -0.520023
    103 C34         0.2290    1.8520    2.6250 c3        1 MOL      0.189897
    104 C35        -0.0020    0.6400    1.6750 c         1 MOL      0.071111
    105 O15         0.9070    0.1520    1.0250 o         1 MOL     -0.234607
    106 C36         1.3170    1.6400    3.7750 c3        1 MOL      0.002132
    107 C37         0.9640    0.3670    4.6810 c3        1 MOL     -0.235852
    108 C38         1.2670    2.9210    4.6890 c3        1 MOL      0.020336
    109 C39        -0.3060    0.3060    5.4320 c3        1 MOL      0.020277
    110 H46         0.0470    4.0200    2.1730 hn        1 MOL      0.277630
    111 H47        -0.7330    2.0320    3.1030 h1        1 MOL      0.097521
    112 H48         2.3160    1.5620    3.3640 hc        1 MOL      0.094742
    113 H49         1.7820    0.2240    5.3900 hc        1 MOL      0.094379
    114 H50         0.9050   -0.4620    3.9780 hc        1 MOL      0.094379
    115 H51         0.2370    3.0980    4.9770 hc        1 MOL      0.006537
    116 H52         1.8600    2.8080    5.5900 hc        1 MOL      0.006537
    117 H53         1.6340    3.8650    4.2990 hc        1 MOL      0.006537
    118 H54        -0.4320    1.2230    6.0120 hc        1 MOL     -0.004894
    119 H55        -1.1120    0.3250    4.7060 hc        1 MOL     -0.004894
    120 H56        -0.3160   -0.5380    6.1190 hc        1 MOL     -0.004894
    121 N11        -1.2620    0.1550    1.5340 n         1 MOL     -0.260494
    122 C40        -1.6860   -0.9000    0.5480 c3        1 MOL     -0.185826
    123 C41        -3.1910   -1.0460    0.2430 c         1 MOL      0.739675
    124 O16        -3.4730   -1.8440   -0.6330 o         1 MOL     -0.544663
    125 C42        -1.1500   -2.2490    1.1330 c3        1 MOL      0.416526
    126 O17        -1.8090   -2.5930    2.3710 oh        1 MOL     -0.626496
    127 H57        -1.9140    0.6040    2.1610 hn        1 MOL      0.242634
    128 H58        -1.2110   -0.7560   -0.4280 h1        1 MOL      0.056117
    129 H59        -0.1030   -2.1600    1.4060 h1        1 MOL     -0.018581
    130 H60        -1.3170   -3.0970    0.4640 h1        1 MOL     -0.018581
    131 H61        -1.1540   -3.0680    2.8840 ho        1 MOL      0.338510
    132 N12        -4.1260   -0.3580    0.9460 n         1 MOL     -0.750137
    133 C43        -5.5490   -0.1940    0.5280 c3        1 MOL      0.249386
    134 C44        -5.7100    0.3980   -0.9100 c         1 MOL      0.477210
    135 O18        -4.7980    0.8960   -1.5450 o         1 MOL     -0.541193
    136 C45        -6.1360    0.6170    1.6110 c3        1 MOL     -0.275709
    137 H62        -3.8160    0.2180    1.7130 hn        1 MOL      0.376420
    138 H63        -6.0430   -1.1580    0.5030 h1        1 MOL      0.110607
    139 H64        -6.5420   -0.1130    2.3110 hc        1 MOL      0.080074
    140 H65        -5.3350    1.1840    2.0880 hc        1 MOL      0.080074
    141 H66        -6.9840    1.2100    1.2840 hc        1 MOL      0.080074
    142 N13        -6.8930    0.2670   -1.5550 n         1 MOL     -0.444416
    143 C46        -8.0730   -0.4510   -1.1060 c3        1 MOL      0.085742
    144 C47        -9.3840    0.0100   -1.8540 c         1 MOL      0.317405
    145 O19        -9.3040    0.3180   -3.0460 o         1 MOL     -0.500338
    146 C48        -7.9150   -1.9500   -1.4020 c3        1 MOL     -0.025176
    147 H67        -6.9560    0.7810   -2.4240 hn        1 MOL      0.310150
    148 H68        -8.1440   -0.3220   -0.0240 h1        1 MOL     -0.009117
    149 H69        -8.0570   -2.0070   -2.4810 hc        1 MOL      0.011506
    150 H70        -6.9730   -2.4100   -1.1060 hc        1 MOL      0.011506
    151 H71        -8.6570   -2.6420   -0.9810 hc        1 MOL      0.011506
    152 N14       -10.5630    0.1490   -1.2490 n         1 MOL     -0.142369
    153 C49       -10.8150   -0.1540    0.1930 c3        1 MOL     -0.159178
    154 C50       -10.2120    0.9430    1.0350 c         1 MOL      0.554985
    155 O20        -9.7930    0.6610    2.1700 o         1 MOL     -0.594904
    156 C51       -12.3300   -0.3020    0.4900 c3        1 MOL     -0.096981
    157 C52       -13.1620    0.9510    0.1550 c3        1 MOL      0.128472
    158 C53       -13.2740    1.2140   -1.3710 c         1 MOL      0.574570
    159 O21       -14.1170    0.5150   -1.9360 o         1 MOL     -0.650266
    160 O22       -12.4330    2.0310   -1.9230 o         1 MOL     -0.650266
    161 H72       -11.3260    0.5060   -1.8000 hn        1 MOL      0.231380
    162 H73       -10.3060   -1.0770    0.4920 h1        1 MOL      0.075510
    163 H74       -12.5610   -0.3790    1.5490 hc        1 MOL      0.049515
    164 H75       -12.7360   -1.1810   -0.0160 hc        1 MOL      0.049515
    165 H76       -12.7140    1.8170    0.6350 hc        1 MOL     -0.063815
    166 H77       -14.1740    0.8400    0.5260 hc        1 MOL     -0.063815
    167 N15       -10.1230    2.1920    0.5780 n         1 MOL     -0.063703
    168 C54        -9.4340    3.3030    1.3020 c3        1 MOL     -0.419338
    169 H78        -9.3900    4.1830    0.6590 h1        1 MOL      0.144767
    170 H79        -9.9880    3.5440    2.2100 h1        1 MOL      0.144767
    171 H80        -8.4220    2.9950    1.5640 h1        1 MOL      0.144767
    172 H81       -10.5070    2.4000   -0.3310 hn        1 MOL      0.131337
    173 Ca1         2.5700    0.4050   -0.8200 Ca        1 MOL      1.785829
    174 O23         0.1270    1.3030   -1.5570 oh        1 MOL     -0.815690
    175 H82        -0.4960    1.6510   -0.9230 ho        1 MOL      0.408051
    176 H83        -0.2260    1.5580   -2.4040 ho        1 MOL      0.408051
    177 O24         0.6980   -1.8270   -1.6780 oh        1 MOL     -0.815690
    178 H84        -0.1670   -1.7610   -2.0650 ho        1 MOL      0.408051
    179 H85         1.2960   -1.6480   -2.4080 ho        1 MOL      0.408051
    180 O25         2.6570    2.4810   -2.7530 oh        1 MOL     -0.815690
    181 H86         1.8630    2.8450   -3.1440 ho        1 MOL      0.408051
    182 H87         3.2040    3.2360   -2.5610 ho        1 MOL      0.408051
@<TRIPOS>BOND
     1    1    2 1   
     2    1    4 1   
     3    1    5 1   
     4    1    6 1   
     5    2    3 2   
     6    2    7 1   
     7    7    8 1   
     8    7   15 1   
     9    8    9 1   
    10    8   11 1   
    11    8   16 1   
    12    9   10 2   
    13    9   19 1   
    14   11   12 1   
    15   11   17 1   
    16   11   18 1   
    17   12   13 1   
    18   12   14 1   
    19   19   20 1   
    20   19   28 1   
    21   20   21 1   
    22   20   23 1   
    23   20   29 1   
    24   21   22 2   
    25   21   41 1   
    26   23   24 1   
    27   23   30 1   
    28   23   31 1   
    29   24   25 1   
    30   24   32 1   
    31   24   33 1   
    32   25   26 1   
    33   25   34 1   
    34   25   35 1   
    35   26   27 1   
    36   26   36 1   
    37   26   37 1   
    38   27   38 1   
    39   27   39 1   
    40   27   40 1   
    41   41   42 1   
    42   41   49 1   
    43   42   43 1   
    44   42   45 1   
    45   42   50 1   
    46   43   44 2   
    47   43   53 1   
    48   45   46 1   
    49   45   51 1   
    50   45   52 1   
    51   46   47 1   
    52   46   48 1   
    53   53   54 1   
    54   53   57 1   
    55   54   55 1   
    56   54   58 1   
    57   54   59 1   
    58   55   56 2   
    59   55   60 1   
    60   60   61 1   
    61   60   68 1   
    62   61   62 1   
    63   61   64 1   
    64   61   69 1   
    65   62   63 2   
    66   62   74 1   
    67   64   65 1   
    68   64   70 1   
    69   64   71 1   
    70   65   66 1   
    71   65   67 2   
    72   66   72 1   
    73   66   73 1   
    74   74   75 1   
    75   74   78 1   
    76   75   76 1   
    77   75   79 1   
    78   75   80 1   
    79   76   77 2   
    80   76   81 1   
    81   81   82 1   
    82   81   93 1   
    83   82   83 1   
    84   82   85 1   
    85   82   94 1   
    86   83   84 2   
    87   83  102 1   
    88   85   86 1   
    89   85   95 1   
    90   85   96 1   
    91   86   87 ar  
    92   86   88 ar  
    93   87   89 ar  
    94   87   97 1   
    95   88   90 ar  
    96   88   98 1   
    97   89   91 ar  
    98   89   99 1   
    99   90   91 ar  
   100   90  100 1   
   101   91   92 1   
   102   92  101 1   
   103  102  103 1   
   104  102  110 1   
   105  103  104 1   
   106  103  106 1   
   107  103  111 1   
   108  104  105 2   
   109  104  121 1   
   110  106  107 1   
   111  106  108 1   
   112  106  112 1   
   113  107  109 1   
   114  107  113 1   
   115  107  114 1   
   116  108  115 1   
   117  108  116 1   
   118  108  117 1   
   119  109  118 1   
   120  109  119 1   
   121  109  120 1   
   122  121  122 1   
   123  121  127 1   
   124  122  123 1   
   125  122  125 1   
   126  122  128 1   
   127  123  124 2   
   128  123  132 1   
   129  125  126 1   
   130  125  129 1   
   131  125  130 1   
   132  126  131 1   
   133  132  133 1   
   134  132  137 1   
   135  133  134 1   
   136  133  136 1   
   137  133  138 1   
   138  134  135 2   
   139  134  142 1   
   140  136  139 1   
   141  136  140 1   
   142  136  141 1   
   143  142  143 1   
   144  142  147 1   
   145  143  144 1   
   146  143  146 1   
   147  143  148 1   
   148  144  145 2   
   149  144  152 1   
   150  146  149 1   
   151  146  150 1   
   152  146  151 1   
   153  152  153 1   
   154  152  161 1   
   155  153  154 1   
   156  153  156 1   
   157  153  162 1   
   158  154  155 2   
   159  154  167 1   
   160  156  157 1   
   161  156  163 1   
   162  156  164 1   
   163  157  158 1   
   164  157  165 1   
   165  157  166 1   
   166  158  159 1   
   167  158  160 1   
   168  167  168 1   
   169  167  172 1   
   170  168  169 1   
   171  168  170 1   
   172  168  171 1   
   173  174  175 1   
   174  174  176 1   
   175  177  178 1   
   176  177  179 1   
   177  180  181 1   
   178  180  182 1   
@<TRIPOS>SUBSTRUCTURE
     1 MOL         1 TEMP              0 ****  ****    0 ROOT
