@<TRIPOS>MOLECULE
MOL
  184   179     1     0     0
SMALL
resp


@<TRIPOS>ATOM
      1 C1         -3.1020    8.1080    0.0990 c3        1 MOL     -0.365331
      2 C2         -2.7680    6.7190   -0.4830 c         1 MOL      0.740708
      3 O1         -1.9650    6.5780   -1.3550 o         1 MOL     -0.573343
      4 H1         -4.1840    8.2350    0.1350 hc        1 MOL      0.092118
      5 H2         -2.6930    8.1880    1.1060 hc        1 MOL      0.092118
      6 H3         -2.6660    8.8820   -0.5340 hc        1 MOL      0.092118
      7 N1         -3.5890    5.7050   -0.1590 n         1 MOL     -0.624475
      8 C3         -4.5630    5.5570    0.9240 c3        1 MOL      0.190055
      9 C4         -6.0570    5.2610    0.5750 c         1 MOL      0.429848
     10 O2         -6.9620    5.2960    1.4090 o         1 MOL     -0.542767
     11 C5         -4.1430    4.3400    1.8170 c3        1 MOL     -0.205477
     12 C6         -4.0500    3.0260    1.0230 c         1 MOL      0.744060
     13 O3         -2.9010    2.5420    0.7050 o         1 MOL     -0.735209
     14 O4         -5.0750    2.3990    0.5790 o         1 MOL     -0.735209
     15 H4         -3.4560    4.9310   -0.7950 hn        1 MOL      0.325357
     16 H5         -4.5360    6.3850    1.6190 h1        1 MOL      0.060615
     17 H6         -4.7410    4.2760    2.7190 hc        1 MOL      0.069078
     18 H7         -3.1280    4.4850    2.1970 hc        1 MOL      0.069078
     19 N2         -6.3620    5.0180   -0.6870 n         1 MOL     -0.504817
     20 C7         -7.7160    5.0020   -1.2860 c3        1 MOL      0.387961
     21 C8         -8.5280    3.6890   -0.9970 c         1 MOL      0.310036
     22 O5         -9.5940    3.5330   -1.5520 o         1 MOL     -0.531047
     23 C9         -7.5670    5.3660   -2.7290 c3        1 MOL     -0.346140
     24 H8         -5.6130    4.7340   -1.3170 hn        1 MOL      0.249738
     25 H9         -8.3240    5.7470   -0.7860 h1        1 MOL      0.045053
     26 H10        -7.0590    6.3370   -2.7530 hc        1 MOL      0.083732
     27 H11        -6.9370    4.6460   -3.2540 hc        1 MOL      0.083732
     28 H12        -8.6090    5.5410   -2.9790 hc        1 MOL      0.083732
     29 N3         -8.0200    2.6780   -0.2590 n         1 MOL     -0.066151
     30 C10        -8.6810    1.4370   -0.0400 c3        1 MOL      0.083873
     31 C11        -8.4690    1.0030    1.4300 c         1 MOL      0.272353
     32 O6         -9.3840    0.5060    2.0640 o         1 MOL     -0.508278
     33 C12        -8.2460    0.3190   -0.9590 c3        1 MOL     -0.251496
     34 C13        -6.7550    0.0480   -1.0950 c         1 MOL      0.806800
     35 O7         -6.0780    0.4960   -2.0390 o         1 MOL     -0.784077
     36 O8         -6.1340   -0.5300   -0.2120 o         1 MOL     -0.784077
     37 H13        -7.2000    2.9080    0.2950 hn        1 MOL      0.024719
     38 H14        -9.7440    1.5910   -0.2220 h1        1 MOL      0.086359
     39 H15        -8.7080    0.5660   -1.9160 hc        1 MOL      0.050639
     40 H16        -8.6880   -0.6430   -0.6970 hc        1 MOL      0.050639
     41 N4         -7.2630    1.1470    2.0190 n         1 MOL      0.044383
     42 C14        -6.8990    0.7500    3.3450 c3        1 MOL     -0.359752
     43 C15        -6.8660   -0.7510    3.4340 c         1 MOL      0.806503
     44 O9         -6.9880   -1.2790    4.5430 o         1 MOL     -0.603714
     45 H17        -6.4860    1.6100    1.5660 hn        1 MOL      0.224500
     46 H18        -7.5740    1.2480    4.0430 h1        1 MOL      0.107219
     47 H19        -5.8260    0.9450    3.4450 h1        1 MOL      0.107219
     48 N5         -6.7370   -1.4750    2.2870 n         1 MOL     -0.774340
     49 C16        -6.9210   -2.9450    2.2350 c3        1 MOL      0.248834
     50 C17        -5.8630   -3.7070    1.3830 c         1 MOL      0.460151
     51 O10        -5.5080   -4.7500    1.8520 o         1 MOL     -0.568560
     52 C18        -8.3440   -3.1210    1.6960 c3        1 MOL     -0.189124
     53 C19        -8.7240   -4.5730    1.7240 c         1 MOL      0.611719
     54 N6         -8.5850   -5.2130    0.6330 n         1 MOL     -0.714743
     55 O11        -9.1940   -5.1170    2.7100 o         1 MOL     -0.576354
     56 H20        -6.8080   -1.0100    1.4000 hn        1 MOL      0.429546
     57 H21        -6.9550   -3.4180    3.2080 h1        1 MOL      0.070480
     58 H22        -8.4230   -2.7570    0.6760 hc        1 MOL      0.055538
     59 H23        -9.0940   -2.6090    2.3120 hc        1 MOL      0.055538
     60 H24        -8.1370   -4.8390   -0.1870 hn        1 MOL      0.332301
     61 H25        -8.8830   -6.1810    0.6130 hn        1 MOL      0.332301
     62 N7         -5.4540   -3.2250    0.2380 n         1 MOL     -0.285143
     63 C20        -4.4740   -3.9630   -0.7060 c3        1 MOL     -0.210047
     64 C21        -3.5430   -3.0930   -1.5530 c         1 MOL      0.672077
     65 O12        -3.8790   -1.9120   -1.8060 o         1 MOL     -0.642136
     66 H26        -5.7590   -2.2820   -0.0020 hn        1 MOL      0.262343
     67 H27        -5.0880   -4.6450   -1.2940 h1        1 MOL      0.134796
     68 H28        -3.8460   -4.4590    0.0420 h1        1 MOL      0.134796
     69 N8         -2.3970   -3.5790   -2.0610 n         1 MOL     -0.441565
     70 C22        -1.6210   -4.7040   -1.6260 c3        1 MOL     -0.087338
     71 C23        -0.2200   -4.3490   -1.1300 c         1 MOL      0.636216
     72 O13         0.1640   -4.7330   -0.0380 o         1 MOL     -0.545017
     73 C24        -1.5220   -5.8490   -2.6920 c3        1 MOL      0.228299
     74 C25        -2.7720   -6.6810   -2.8570 c3        1 MOL     -0.197945
     75 O14        -1.1470   -5.2970   -3.9390 oh        1 MOL     -0.592775
     76 H29        -2.0750   -3.1270   -2.9060 hn        1 MOL      0.320699
     77 H30        -2.1640   -5.0430   -0.7420 h1        1 MOL      0.074459
     78 H31        -0.6670   -6.4340   -2.3400 h1        1 MOL      0.033201
     79 H32        -0.8340   -6.0830   -4.3940 ho        1 MOL      0.402005
     80 H33        -2.6270   -7.3180   -3.7270 hc        1 MOL      0.046962
     81 H34        -2.9300   -7.3140   -1.9950 hc        1 MOL      0.046962
     82 H35        -3.6420   -6.0510   -3.0300 hc        1 MOL      0.046962
     83 N9          0.5750   -3.5440   -1.8240 n         1 MOL     -0.497411
     84 C26         1.9320   -3.0090   -1.5750 c3        1 MOL      0.154528
     85 C27         1.9240   -1.4640   -1.5800 c         1 MOL      0.586285
     86 O15         1.1770   -0.8880   -2.3740 o         1 MOL     -0.567310
     87 C28         3.0200   -3.5990   -2.5330 c3        1 MOL     -0.107433
     88 C29         3.3680   -5.0860   -2.1430 c3        1 MOL     -0.013495
     89 C30         4.3560   -2.8390   -2.5940 c3        1 MOL      0.089128
     90 C31         4.2750   -5.8880   -3.0940 c3        1 MOL     -0.267928
     91 H36         0.3620   -3.3060   -2.7810 hn        1 MOL      0.242128
     92 H37         2.2580   -3.3690   -0.6010 h1        1 MOL      0.039812
     93 H38         2.5780   -3.5560   -3.5300 hc        1 MOL      0.034315
     94 H39         2.4740   -5.7020   -2.0890 hc        1 MOL      0.032737
     95 H40         3.8960   -5.1900   -1.1910 hc        1 MOL      0.032737
     96 H41         4.2240   -1.7610   -2.7310 hc        1 MOL      0.010150
     97 H42         4.9520   -3.0890   -1.7220 hc        1 MOL      0.010150
     98 H43         4.8910   -3.0990   -3.5010 hc        1 MOL      0.010150
     99 H44         3.7520   -6.0490   -4.0380 hc        1 MOL      0.060677
    100 H45         5.2260   -5.3610   -3.0810 hc        1 MOL      0.060677
    101 H46         4.5660   -6.8560   -2.7040 hc        1 MOL      0.060677
    102 N10         2.7570   -0.8130   -0.7420 n         1 MOL     -0.635360
    103 C32         3.5390   -1.3260    0.3820 c3        1 MOL      0.393802
    104 C33         5.0460   -0.9390    0.2420 c         1 MOL      0.299024
    105 O16         5.3750    0.0330   -0.5330 o         1 MOL     -0.429400
    106 C34         2.8730   -0.9540    1.7780 c3        1 MOL     -0.206133
    107 C35         1.3000   -1.0250    1.7770 c         1 MOL      0.736982
    108 O17         0.7190   -1.8970    2.4270 o         1 MOL     -0.707788
    109 O18         0.6640   -0.1480    1.1420 o         1 MOL     -0.707788
    110 H47         2.7310    0.1950   -0.8080 hn        1 MOL      0.355268
    111 H48         3.5070   -2.4220    0.3840 h1        1 MOL     -0.024180
    112 H49         3.0290    0.0720    2.0990 hc        1 MOL      0.033317
    113 H50         3.2480   -1.6770    2.5020 hc        1 MOL      0.033317
    114 N11         5.9730   -1.6250    1.0250 n         1 MOL     -0.427308
    115 C36         7.4230   -1.3540    1.1140 c3        1 MOL      0.267206
    116 C37         8.2400   -1.7780   -0.0890 c         1 MOL      0.319708
    117 O19         7.6780   -2.5790   -0.7670 o         1 MOL     -0.463550
    118 C38         7.9360   -1.9450    2.4000 c3        1 MOL     -0.196301
    119 C39         7.2010   -1.4800    3.6160 ca        1 MOL      0.012172
    120 C40         7.6370   -0.3410    4.3140 ca        1 MOL     -0.099960
    121 C41         6.0310   -2.2300    3.9830 ca        1 MOL     -0.099960
    122 C42         6.8630    0.0060    5.4610 ca        1 MOL     -0.171093
    123 C43         5.3560   -1.8410    5.1680 ca        1 MOL     -0.171093
    124 C44         5.7570   -0.6900    5.8490 ca        1 MOL     -0.066635
    125 H51         5.6810   -2.4650    1.5130 hn        1 MOL      0.264376
    126 H52         7.5550   -0.2670    1.1610 h1        1 MOL      0.096887
    127 H53         8.9560   -1.6240    2.6450 hc        1 MOL      0.047174
    128 H54         7.8670   -3.0320    2.4230 hc        1 MOL      0.047174
    129 H55         8.5190    0.2570    4.1070 ha        1 MOL      0.113728
    130 H56         5.7430   -3.1520    3.5130 ha        1 MOL      0.113728
    131 H57         7.2510    0.8780    5.9820 ha        1 MOL      0.121691
    132 H58         4.5490   -2.4640    5.5180 ha        1 MOL      0.121691
    133 H59         5.2190   -0.5290    6.7630 ha        1 MOL      0.096722
    134 N12         9.5150   -1.3120   -0.3380 n         1 MOL     -0.108673
    135 C45        10.3760   -0.4330    0.5060 c3        1 MOL      0.196935
    136 C46         9.8700    0.9910    0.6970 c         1 MOL      0.206456
    137 O20         9.6070    1.4010    1.8100 o         1 MOL     -0.451407
    138 C47        11.7740   -0.4680   -0.0370 c3        1 MOL     -0.060610
    139 C48        11.7480   -1.4870   -1.1530 c3        1 MOL     -0.029977
    140 C49        10.2510   -1.8540   -1.3980 c3        1 MOL      0.030865
    141 H60        10.3990   -0.9080    1.4890 h1        1 MOL      0.012297
    142 H61        12.1350    0.4900   -0.4360 hc        1 MOL      0.032599
    143 H62        12.4370   -0.8030    0.7620 hc        1 MOL      0.032599
    144 H63        12.2760   -1.0590   -2.0080 hc        1 MOL      0.015772
    145 H64        12.3440   -2.3610   -0.8920 hc        1 MOL      0.015772
    146 H65         9.8780   -1.6020   -2.4000 h1        1 MOL      0.021273
    147 H66        10.1800   -2.9340   -1.3180 h1        1 MOL      0.021273
    148 N13         9.6960    1.7980   -0.3930 n         1 MOL     -0.356080
    149 C50         9.4710    3.2200   -0.1740 c3        1 MOL      0.131265
    150 C51        10.7790    4.0650    0.0640 c         1 MOL      0.444297
    151 O21        11.5130    4.3070   -0.8830 o         1 MOL     -0.570203
    152 C52         8.6560    3.7590   -1.4120 c3        1 MOL     -0.071887
    153 C53         7.2220    3.2360   -1.5460 c3        1 MOL     -0.094454
    154 C54         6.6390    3.6680   -2.9180 c         1 MOL      0.763466
    155 O22         6.4460    2.7970   -3.7500 o         1 MOL     -0.747804
    156 O23         6.4630    4.8620   -3.2720 o         1 MOL     -0.747804
    157 H67         9.9460    1.5330   -1.3340 hn        1 MOL      0.301459
    158 H68         8.7810    3.2350    0.6720 h1        1 MOL      0.122937
    159 H69         9.1110    3.5370   -2.3780 hc        1 MOL      0.018722
    160 H70         8.6290    4.8490   -1.4310 hc        1 MOL      0.018722
    161 H71         6.5950    3.7470   -0.8200 hc        1 MOL     -0.038134
    162 H72         7.2010    2.1530   -1.4340 hc        1 MOL     -0.038134
    163 N14        11.1740    4.3990    1.2930 n         1 MOL     -0.316556
    164 C55        10.4610    4.3680    2.5130 c3        1 MOL     -0.014267
    165 H73         9.4150    4.1350    2.3160 h1        1 MOL      0.033331
    166 H74        10.8870    3.6040    3.1640 h1        1 MOL      0.033331
    167 H75        10.5300    5.3410    3.0000 h1        1 MOL      0.033331
    168 H76        12.0200    4.9580    1.2800 hn        1 MOL      0.246856
    169 Ca1        -3.6800    0.6690   -1.0060 Ca        1 MOL      1.782064
    170 O24        -4.3770    2.9100   -2.3800 oh        1 MOL     -0.807108
    171 H77        -3.9450    3.6000   -2.8770 ho        1 MOL      0.402383
    172 H78        -5.1890    2.7500   -2.8610 ho        1 MOL      0.402383
    173 O25        -1.3330   -0.6410   -0.6830 oh        1 MOL     -0.807108
    174 H79        -0.9560   -0.5050    0.1750 ho        1 MOL      0.402383
    175 H80        -0.6120   -0.9640   -1.2210 ho        1 MOL      0.402383
    176 O26        -3.2930   -0.6720    1.3490 oh        1 MOL     -0.807108
    177 H81        -2.7130   -1.4250    1.4690 ho        1 MOL      0.402383
    178 H82        -3.4190   -0.3340    2.2290 ho        1 MOL      0.402383
    179 O27        -1.3190    2.2340   -1.8750 oh        1 MOL     -0.807108
    180 H83        -0.7510    2.3840   -2.6250 ho        1 MOL      0.402383
    181 H84        -0.9950    2.8240   -1.2010 ho        1 MOL      0.402383
    182 O28        -3.2950    0.3070   -3.6730 oh        1 MOL     -0.807108
    183 H85        -3.9990    0.6080   -4.2510 ho        1 MOL      0.402383
    184 H86        -2.9820   -0.5050   -4.0630 ho        1 MOL      0.402383
@<TRIPOS>BOND
     1    1    2 1   
     2    1    4 1   
     3    1    5 1   
     4    1    6 1   
     5    2    3 2   
     6    2    7 1   
     7    7    8 1   
     8    7   15 1   
     9    8    9 1   
    10    8   11 1   
    11    8   16 1   
    12    9   10 2   
    13    9   19 1   
    14   11   12 1   
    15   11   17 1   
    16   11   18 1   
    17   12   13 1   
    18   12   14 1   
    19   19   20 1   
    20   19   24 1   
    21   20   21 1   
    22   20   23 1   
    23   20   25 1   
    24   21   22 2   
    25   21   29 1   
    26   23   26 1   
    27   23   27 1   
    28   23   28 1   
    29   29   30 1   
    30   29   37 1   
    31   30   31 1   
    32   30   33 1   
    33   30   38 1   
    34   31   32 2   
    35   31   41 1   
    36   33   34 1   
    37   33   39 1   
    38   33   40 1   
    39   34   35 1   
    40   34   36 1   
    41   41   42 1   
    42   41   45 1   
    43   42   43 1   
    44   42   46 1   
    45   42   47 1   
    46   43   44 2   
    47   43   48 1   
    48   48   49 1   
    49   48   56 1   
    50   49   50 1   
    51   49   52 1   
    52   49   57 1   
    53   50   51 2   
    54   50   62 1   
    55   52   53 1   
    56   52   58 1   
    57   52   59 1   
    58   53   54 1   
    59   53   55 2   
    60   54   60 1   
    61   54   61 1   
    62   62   63 1   
    63   62   66 1   
    64   63   64 1   
    65   63   67 1   
    66   63   68 1   
    67   64   65 2   
    68   64   69 1   
    69   69   70 1   
    70   69   76 1   
    71   70   71 1   
    72   70   73 1   
    73   70   77 1   
    74   71   72 2   
    75   71   83 1   
    76   73   74 1   
    77   73   75 1   
    78   73   78 1   
    79   74   80 1   
    80   74   81 1   
    81   74   82 1   
    82   75   79 1   
    83   83   84 1   
    84   83   91 1   
    85   84   85 1   
    86   84   87 1   
    87   84   92 1   
    88   85   86 2   
    89   85  102 1   
    90   87   88 1   
    91   87   89 1   
    92   87   93 1   
    93   88   90 1   
    94   88   94 1   
    95   88   95 1   
    96   89   96 1   
    97   89   97 1   
    98   89   98 1   
    99   90   99 1   
   100   90  100 1   
   101   90  101 1   
   102  102  103 1   
   103  102  110 1   
   104  103  104 1   
   105  103  106 1   
   106  103  111 1   
   107  104  105 2   
   108  104  114 1   
   109  106  107 1   
   110  106  112 1   
   111  106  113 1   
   112  107  108 1   
   113  107  109 1   
   114  114  115 1   
   115  114  125 1   
   116  115  116 1   
   117  115  118 1   
   118  115  126 1   
   119  116  117 2   
   120  116  134 1   
   121  118  119 1   
   122  118  127 1   
   123  118  128 1   
   124  119  120 ar  
   125  119  121 ar  
   126  120  122 ar  
   127  120  129 1   
   128  121  123 ar  
   129  121  130 1   
   130  122  124 ar  
   131  122  131 1   
   132  123  124 ar  
   133  123  132 1   
   134  124  133 1   
   135  134  135 1   
   136  134  140 1   
   137  135  136 1   
   138  135  138 1   
   139  135  141 1   
   140  136  137 2   
   141  136  148 1   
   142  138  139 1   
   143  138  142 1   
   144  138  143 1   
   145  139  140 1   
   146  139  144 1   
   147  139  145 1   
   148  140  146 1   
   149  140  147 1   
   150  148  149 1   
   151  148  157 1   
   152  149  150 1   
   153  149  152 1   
   154  149  158 1   
   155  150  151 2   
   156  150  163 1   
   157  152  153 1   
   158  152  159 1   
   159  152  160 1   
   160  153  154 1   
   161  153  161 1   
   162  153  162 1   
   163  154  155 1   
   164  154  156 1   
   165  163  164 1   
   166  163  168 1   
   167  164  165 1   
   168  164  166 1   
   169  164  167 1   
   170  170  171 1   
   171  170  172 1   
   172  173  174 1   
   173  173  175 1   
   174  176  177 1   
   175  176  178 1   
   176  179  180 1   
   177  179  181 1   
   178  182  183 1   
   179  182  184 1   
@<TRIPOS>SUBSTRUCTURE
     1 MOL         1 TEMP              0 ****  ****    0 ROOT
