@<TRIPOS>MOLECULE
MOL
  182   178     1     0     0
SMALL
resp


@<TRIPOS>ATOM
      1 C1          0.2630   -3.6710    5.9270 c3        1 MOL     -0.476576
      2 C2          0.4460   -3.5390    4.4520 c         1 MOL      0.824395
      3 O1         -0.4840   -3.5450    3.7160 o         1 MOL     -0.597835
      4 H1         -0.5980   -4.3070    6.1300 hc        1 MOL      0.130762
      5 H2          1.1550   -4.1180    6.3650 hc        1 MOL      0.130762
      6 H3          0.0970   -2.6860    6.3630 hc        1 MOL      0.130762
      7 N1          1.7150   -3.4750    4.0060 n         1 MOL     -0.658122
      8 C3          2.1510   -3.2720    2.6160 c3        1 MOL      0.063306
      9 C4          2.3110   -4.5320    1.7280 c         1 MOL      0.680851
     10 O2          2.7540   -5.5520    2.2460 o         1 MOL     -0.562663
     11 C5          3.4270   -2.4200    2.6640 c3        1 MOL      0.055722
     12 C6          3.5430   -1.4930    1.4380 c         1 MOL      0.058960
     13 O3          4.0430   -0.3700    1.6170 o         1 MOL     -0.468968
     14 O4          3.1870   -1.9430    0.3360 o         1 MOL     -0.468968
     15 H4          2.4020   -3.3270    4.7330 hn        1 MOL      0.322634
     16 H5          1.3990   -2.7410    2.0450 h1        1 MOL      0.045440
     17 H6          4.2720   -3.1030    2.7080 hc        1 MOL      0.050529
     18 H7          3.4830   -1.8470    3.5860 hc        1 MOL      0.050529
     19 N2          2.1310   -4.4330    0.3780 n         1 MOL     -0.511268
     20 C7          2.3900   -5.4620   -0.6870 c3        1 MOL     -0.025058
     21 C8          3.7310   -5.1480   -1.4640 c         1 MOL      0.613828
     22 O5          4.2440   -6.0080   -2.1200 o         1 MOL     -0.570465
     23 C9          1.2170   -5.5390   -1.6420 c3        1 MOL      0.003766
     24 C10        -0.0560   -6.2860   -1.1510 c3        1 MOL      0.115550
     25 C11        -0.8770   -6.8620   -2.2910 c3        1 MOL     -0.081717
     26 C12        -2.0920   -7.7730   -1.9210 c3        1 MOL      0.152922
     27 N3         -2.8590   -8.3550   -3.0710 n4        1 MOL     -0.361755
     28 H8          2.0860   -3.4990    0.0070 hn        1 MOL      0.207413
     29 H9          2.5620   -6.4750   -0.3010 h1        1 MOL      0.102124
     30 H10         1.5630   -6.1060   -2.5080 hc        1 MOL     -0.005486
     31 H11         0.9100   -4.5630   -2.0240 hc        1 MOL     -0.005486
     32 H12        -0.5640   -5.5810   -0.4980 hc        1 MOL     -0.000111
     33 H13         0.1710   -7.1660   -0.5550 hc        1 MOL     -0.000111
     34 H14        -0.2400   -7.4400   -2.9570 hc        1 MOL      0.034653
     35 H15        -1.3470   -6.0050   -2.7880 hc        1 MOL      0.034653
     36 H16        -2.8540   -7.2200   -1.3540 hx        1 MOL      0.042354
     37 H17        -1.7380   -8.5010   -1.2000 hx        1 MOL      0.042354
     38 H18        -3.5240   -8.9920   -2.6610 hn        1 MOL      0.290521
     39 H19        -3.2780   -7.6200   -3.6270 hn        1 MOL      0.290521
     40 H20        -2.2520   -8.9590   -3.6130 hn        1 MOL      0.290521
     41 N4          4.3790   -3.9770   -1.3820 n         1 MOL     -0.434718
     42 C13         5.6540   -3.5750   -2.0240 c3        1 MOL      0.095846
     43 C14         6.6220   -2.9610   -1.0130 c         1 MOL      0.378438
     44 O6          7.8480   -2.9670   -1.2370 o         1 MOL     -0.547464
     45 C15         5.3950   -2.6840   -3.1830 c3        1 MOL     -0.231510
     46 C16         4.4490   -1.5650   -2.8320 c         1 MOL      0.841318
     47 O7          3.3420   -1.3250   -3.3880 o         1 MOL     -0.752630
     48 O8          4.8410   -0.7260   -1.9570 o         1 MOL     -0.752630
     49 H21         3.8060   -3.3440   -0.8460 hn        1 MOL      0.228510
     50 H22         6.1410   -4.4470   -2.4630 h1        1 MOL      0.129551
     51 H23         5.0020   -3.2530   -4.0270 hc        1 MOL      0.076391
     52 H24         6.3120   -2.2590   -3.5790 hc        1 MOL      0.076391
     53 N5          6.1600   -2.3690    0.0690 n         1 MOL     -0.101703
     54 C17         6.9490   -1.7400    1.1930 c3        1 MOL     -0.226743
     55 C18         7.2660   -0.3040    0.8740 c         1 MOL      0.612225
     56 O9          7.9400    0.2780    1.7030 o         1 MOL     -0.577399
     57 H25         5.1610   -2.3670    0.1940 hn        1 MOL      0.146196
     58 H26         7.9030   -2.2590    1.2500 h1        1 MOL      0.138196
     59 H27         6.4810   -1.8870    2.1770 h1        1 MOL      0.138196
     60 N6          6.7720    0.2750   -0.2390 n         1 MOL     -0.123908
     61 C19         7.1070    1.6190   -0.7270 c3        1 MOL     -0.006845
     62 C20         5.9440    2.5890   -0.2930 c         1 MOL      0.245963
     63 O10         4.7430    2.2950   -0.3750 o         1 MOL     -0.290075
     64 C21         7.2700    1.6310   -2.2440 c3        1 MOL     -0.152515
     65 C22         8.5150    0.9930   -2.7530 c         1 MOL      0.639379
     66 N7          8.7100   -0.3220   -2.7600 n         1 MOL     -0.736495
     67 O11         9.4300    1.6850   -3.2250 o         1 MOL     -0.578183
     68 H28         6.0600   -0.2380   -0.7470 hn        1 MOL     -0.125818
     69 H29         8.0190    1.9170   -0.1940 h1        1 MOL      0.078246
     70 H30         7.2880    2.6540   -2.5980 hc        1 MOL      0.060820
     71 H31         6.3920    1.1270   -2.6660 hc        1 MOL      0.060820
     72 H32         8.1880   -0.9690   -2.1790 hn        1 MOL      0.356227
     73 H33         9.4390   -0.6770   -3.3610 hn        1 MOL      0.356227
     74 N8          6.3060    3.8320    0.0020 n         1 MOL     -0.079139
     75 C23         5.3960    4.9670    0.1090 c3        1 MOL     -0.488367
     76 C24         4.1910    4.7220    0.9850 c         1 MOL      0.710311
     77 O12         4.2160    4.5060    2.2160 o         1 MOL     -0.547022
     78 H34         7.2760    4.0450    0.1750 hn        1 MOL      0.257347
     79 H35         4.9950    5.1070   -0.8980 h1        1 MOL      0.172398
     80 H36         5.9120    5.7990    0.5900 h1        1 MOL      0.172398
     81 N9          3.0350    4.8240    0.4120 n         1 MOL     -0.463502
     82 C25         1.6780    4.6880    0.9990 c3        1 MOL     -0.284016
     83 C26         1.4120    3.2680    1.4480 c         1 MOL      1.013855
     84 O13         2.0930    2.2930    1.0100 o         1 MOL     -0.781364
     85 C27         0.6230    5.0860   -0.0420 c3        1 MOL     -0.050248
     86 C28         0.7550    6.4970   -0.6530 ca        1 MOL     -0.014378
     87 C29         1.1670    7.6290    0.1340 ca        1 MOL     -0.076944
     88 C30         0.5870    6.6710   -2.0600 ca        1 MOL     -0.076944
     89 C31         1.3510    8.8780   -0.4770 ca        1 MOL     -0.296063
     90 C32         0.8250    7.8730   -2.6530 ca        1 MOL     -0.296063
     91 C33         1.1850    9.0110   -1.8800 ca        1 MOL      0.345468
     92 O14         1.1590   10.2020   -2.5730 oh        1 MOL     -0.476627
     93 H37         3.1380    4.7990   -0.5890 hn        1 MOL      0.279723
     94 H38         1.5470    5.3540    1.8550 h1        1 MOL      0.172196
     95 H39        -0.3430    4.9290    0.4260 hc        1 MOL      0.027510
     96 H40         0.6870    4.4530   -0.9290 hc        1 MOL      0.027510
     97 H41         1.2780    7.5990    1.2090 ha        1 MOL      0.121695
     98 H42         0.2110    5.8230   -2.6150 ha        1 MOL      0.121695
     99 H43         1.4960    9.7280    0.1690 ha        1 MOL      0.167049
    100 H44         0.5800    7.9930   -3.6980 ha        1 MOL      0.167049
    101 H45         1.5040   10.9580   -2.0920 ho        1 MOL      0.378061
    102 N10         0.3760    3.0600    2.3500 n         1 MOL     -0.793220
    103 C34         0.0620    1.7750    2.8980 c3        1 MOL      0.191205
    104 C35        -0.1890    0.6190    1.8990 c         1 MOL      0.193467
    105 O15         0.8020   -0.0160    1.3710 o         1 MOL     -0.275996
    106 C36         1.2380    1.3670    3.9570 c3        1 MOL      0.063231
    107 C37         0.7830    0.1110    4.7410 c3        1 MOL     -0.132524
    108 C38         1.6740    2.5200    4.9160 c3        1 MOL     -0.021123
    109 C39        -0.3280    0.3940    5.8170 c3        1 MOL     -0.206918
    110 H46        -0.0800    3.9070    2.6610 hn        1 MOL      0.369466
    111 H47        -0.8610    1.8380    3.4720 h1        1 MOL      0.085005
    112 H48         2.1600    1.2410    3.3700 hc        1 MOL      0.066186
    113 H49         1.6540   -0.2750    5.2580 hc        1 MOL      0.074377
    114 H50         0.4840   -0.6980    4.0750 hc        1 MOL      0.074377
    115 H51         2.4180    2.1860    5.6390 hc        1 MOL      0.012848
    116 H52         1.9970    3.4460    4.4320 hc        1 MOL      0.012848
    117 H53         0.8320    2.8750    5.5180 hc        1 MOL      0.012848
    118 H54        -0.6680   -0.5060    6.3040 hc        1 MOL      0.052171
    119 H55         0.0530    1.1020    6.5610 hc        1 MOL      0.052171
    120 H56        -1.1660    0.8200    5.2710 hc        1 MOL      0.052171
    121 N11        -1.4270    0.2980    1.4770 n         1 MOL     -0.191235
    122 C40        -1.8800   -0.6960    0.4180 c3        1 MOL     -0.432679
    123 C41        -3.3440   -0.6640   -0.0020 c         1 MOL      0.717539
    124 O16        -3.7300   -1.4180   -0.8910 o         1 MOL     -0.523275
    125 C42        -1.4120   -2.0950    0.7900 c3        1 MOL      0.471096
    126 O17        -2.0900   -2.4400    1.9470 oh        1 MOL     -0.620610
    127 H57        -2.2090    0.6370    2.0250 hn        1 MOL      0.240166
    128 H58        -1.3310   -0.3590   -0.4700 h1        1 MOL      0.124838
    129 H59        -0.3570   -2.1050    1.0780 h1        1 MOL     -0.043550
    130 H60        -1.6630   -2.7900   -0.0080 h1        1 MOL     -0.043550
    131 H61        -1.4580   -2.7530    2.6040 ho        1 MOL      0.381492
    132 N12        -4.2870    0.0800    0.6770 n         1 MOL     -0.502419
    133 C43        -5.6480    0.1330    0.4070 c3        1 MOL      0.104705
    134 C44        -5.9600    0.6930   -1.0240 c         1 MOL      0.580349
    135 O18        -5.2850    1.6420   -1.4560 o         1 MOL     -0.566904
    136 C45        -6.4180    0.8290    1.5120 c3        1 MOL     -0.155599
    137 H62        -4.0370    0.6820    1.4430 hn        1 MOL      0.261739
    138 H63        -6.0340   -0.8830    0.3760 h1        1 MOL      0.083405
    139 H64        -6.2870    0.2830    2.4500 hc        1 MOL      0.053074
    140 H65        -6.1170    1.8750    1.5950 hc        1 MOL      0.053074
    141 H66        -7.4880    0.8370    1.3170 hc        1 MOL      0.053074
    142 N13        -6.9940    0.2020   -1.7760 n         1 MOL     -0.661711
    143 C46        -8.0220   -0.7660   -1.6030 c3        1 MOL      0.394530
    144 C47        -9.3410   -0.2420   -2.1440 c         1 MOL      0.232328
    145 O19        -9.4260    0.0420   -3.3700 o         1 MOL     -0.512528
    146 C48        -7.5670   -2.1060   -2.2190 c3        1 MOL     -0.217241
    147 H67        -7.0310    0.6810   -2.6670 hn        1 MOL      0.339032
    148 H68        -8.1540   -0.8410   -0.5230 h1        1 MOL     -0.042739
    149 H69        -6.5560   -2.3030   -1.8580 hc        1 MOL      0.057392
    150 H70        -8.2720   -2.8910   -1.9380 hc        1 MOL      0.057392
    151 H71        -7.6360   -1.9920   -3.3000 hc        1 MOL      0.057392
    152 N14       -10.3900   -0.0620   -1.3510 n         1 MOL      0.044710
    153 C49       -10.5730   -0.3000    0.0620 c3        1 MOL     -0.364559
    154 C50       -10.0550    0.8330    0.9910 c         1 MOL      0.704930
    155 O20        -9.9080    0.5750    2.1680 o         1 MOL     -0.578372
    156 C51       -12.0370   -0.6460    0.4040 c3        1 MOL     -0.079655
    157 C52       -12.9920    0.5020    0.2030 c3        1 MOL     -0.164316
    158 C53       -13.6250    0.4480   -1.1750 c         1 MOL      0.670006
    159 O21       -13.1120    1.2200   -2.0400 o         1 MOL     -0.638146
    160 O22       -14.4630   -0.4060   -1.4820 o         1 MOL     -0.638146
    161 H72       -11.2200    0.3480   -1.7570 hn        1 MOL      0.153089
    162 H73        -9.9000   -1.1290    0.2910 h1        1 MOL      0.085766
    163 H74       -12.0760   -0.9660    1.4460 hc        1 MOL      0.082678
    164 H75       -12.3260   -1.4620   -0.2440 hc        1 MOL      0.082678
    165 H76       -12.4620    1.4350    0.3620 hc        1 MOL      0.024228
    166 H77       -13.7490    0.3450    0.9780 hc        1 MOL      0.024228
    167 N15        -9.8270    2.0330    0.4770 n         1 MOL     -0.264900
    168 C54        -9.2430    3.2410    1.1640 c3        1 MOL     -0.220454
    169 H78        -8.7010    3.8450    0.4370 h1        1 MOL      0.104022
    170 H79       -10.0450    3.8340    1.6020 h1        1 MOL      0.104022
    171 H80        -8.5590    2.9170    1.9490 h1        1 MOL      0.104022
    172 H81       -10.1010    2.1880   -0.4850 hn        1 MOL      0.213514
    173 Ca1         2.7980    0.4460   -0.8170 Ca        1 MOL      1.764611
    174 O23         1.2990   -1.5400   -1.6820 oh        1 MOL     -0.854207
    175 H82         0.3570   -1.5490   -1.8490 ho        1 MOL      0.420393
    176 H83         1.6900   -1.8760   -2.4870 ho        1 MOL      0.420393
    177 O24         0.3470    1.0680   -1.4310 oh        1 MOL     -0.854207
    178 H84         0.0840    1.0500   -2.3420 ho        1 MOL      0.420393
    179 H85        -0.1470    1.7920   -1.0460 ho        1 MOL      0.420393
    180 O25         2.8950    2.4200   -2.8070 oh        1 MOL     -0.854207
    181 H86         2.9550    3.3650   -2.9290 ho        1 MOL      0.420393
    182 H87         2.2810    2.1260   -3.4790 ho        1 MOL      0.420393
@<TRIPOS>BOND
     1    1    2 1   
     2    1    4 1   
     3    1    5 1   
     4    1    6 1   
     5    2    3 2   
     6    2    7 1   
     7    7    8 1   
     8    7   15 1   
     9    8    9 1   
    10    8   11 1   
    11    8   16 1   
    12    9   10 2   
    13    9   19 1   
    14   11   12 1   
    15   11   17 1   
    16   11   18 1   
    17   12   13 1   
    18   12   14 1   
    19   19   20 1   
    20   19   28 1   
    21   20   21 1   
    22   20   23 1   
    23   20   29 1   
    24   21   22 2   
    25   21   41 1   
    26   23   24 1   
    27   23   30 1   
    28   23   31 1   
    29   24   25 1   
    30   24   32 1   
    31   24   33 1   
    32   25   26 1   
    33   25   34 1   
    34   25   35 1   
    35   26   27 1   
    36   26   36 1   
    37   26   37 1   
    38   27   38 1   
    39   27   39 1   
    40   27   40 1   
    41   41   42 1   
    42   41   49 1   
    43   42   43 1   
    44   42   45 1   
    45   42   50 1   
    46   43   44 2   
    47   43   53 1   
    48   45   46 1   
    49   45   51 1   
    50   45   52 1   
    51   46   47 1   
    52   46   48 1   
    53   53   54 1   
    54   53   57 1   
    55   54   55 1   
    56   54   58 1   
    57   54   59 1   
    58   55   56 2   
    59   55   60 1   
    60   60   61 1   
    61   60   68 1   
    62   61   62 1   
    63   61   64 1   
    64   61   69 1   
    65   62   63 2   
    66   62   74 1   
    67   64   65 1   
    68   64   70 1   
    69   64   71 1   
    70   65   66 1   
    71   65   67 2   
    72   66   72 1   
    73   66   73 1   
    74   74   75 1   
    75   74   78 1   
    76   75   76 1   
    77   75   79 1   
    78   75   80 1   
    79   76   77 2   
    80   76   81 1   
    81   81   82 1   
    82   81   93 1   
    83   82   83 1   
    84   82   85 1   
    85   82   94 1   
    86   83   84 2   
    87   83  102 1   
    88   85   86 1   
    89   85   95 1   
    90   85   96 1   
    91   86   87 ar  
    92   86   88 ar  
    93   87   89 ar  
    94   87   97 1   
    95   88   90 ar  
    96   88   98 1   
    97   89   91 ar  
    98   89   99 1   
    99   90   91 ar  
   100   90  100 1   
   101   91   92 1   
   102   92  101 1   
   103  102  103 1   
   104  102  110 1   
   105  103  104 1   
   106  103  106 1   
   107  103  111 1   
   108  104  105 2   
   109  104  121 1   
   110  106  107 1   
   111  106  108 1   
   112  106  112 1   
   113  107  109 1   
   114  107  113 1   
   115  107  114 1   
   116  108  115 1   
   117  108  116 1   
   118  108  117 1   
   119  109  118 1   
   120  109  119 1   
   121  109  120 1   
   122  121  122 1   
   123  121  127 1   
   124  122  123 1   
   125  122  125 1   
   126  122  128 1   
   127  123  124 2   
   128  123  132 1   
   129  125  126 1   
   130  125  129 1   
   131  125  130 1   
   132  126  131 1   
   133  132  133 1   
   134  132  137 1   
   135  133  134 1   
   136  133  136 1   
   137  133  138 1   
   138  134  135 2   
   139  134  142 1   
   140  136  139 1   
   141  136  140 1   
   142  136  141 1   
   143  142  143 1   
   144  142  147 1   
   145  143  144 1   
   146  143  146 1   
   147  143  148 1   
   148  144  145 2   
   149  144  152 1   
   150  146  149 1   
   151  146  150 1   
   152  146  151 1   
   153  152  153 1   
   154  152  161 1   
   155  153  154 1   
   156  153  156 1   
   157  153  162 1   
   158  154  155 2   
   159  154  167 1   
   160  156  157 1   
   161  156  163 1   
   162  156  164 1   
   163  157  158 1   
   164  157  165 1   
   165  157  166 1   
   166  158  159 1   
   167  158  160 1   
   168  167  168 1   
   169  167  172 1   
   170  168  169 1   
   171  168  170 1   
   172  168  171 1   
   173  174  175 1   
   174  174  176 1   
   175  177  178 1   
   176  177  179 1   
   177  180  181 1   
   178  180  182 1   
@<TRIPOS>SUBSTRUCTURE
     1 MOL         1 TEMP              0 ****  ****    0 ROOT
