@<TRIPOS>MOLECULE
MOL
  192   187     1     0     0
SMALL
resp


@<TRIPOS>ATOM
      1 C1          4.9290    3.5600   -3.9930 c3        1 MOL     -0.358062
      2 C2          5.6330    2.9720   -2.7240 c         1 MOL      0.818400
      3 O1          4.9820    2.7760   -1.7050 o         1 MOL     -0.690357
      4 H1          5.4210    4.4890   -4.2830 hc        1 MOL      0.088922
      5 H2          4.9960    2.8430   -4.8110 hc        1 MOL      0.088922
      6 H3          3.8810    3.7590   -3.7690 hc        1 MOL      0.088922
      7 N1          6.8920    2.5030   -2.8390 n         1 MOL     -0.711104
      8 C3          7.5670    1.4760   -2.0140 c3        1 MOL      0.185922
      9 C4          6.5680    0.4020   -1.5800 c         1 MOL      0.289180
     10 O2          6.1220    0.3390   -0.4130 o         1 MOL     -0.452062
     11 C5          8.3880    2.1950   -0.9040 c3        1 MOL     -0.050450
     12 C6          7.6990    3.4130   -0.2840 c         1 MOL      0.773240
     13 O3          6.8370    3.2070    0.6300 o         1 MOL     -0.747308
     14 O4          8.0510    4.5920   -0.5580 o         1 MOL     -0.747308
     15 H4          7.2730    2.6720   -3.7580 hn        1 MOL      0.321619
     16 H5          8.3390    0.9330   -2.5660 h1        1 MOL      0.057318
     17 H6          9.3000    2.6180   -1.3390 hc        1 MOL      0.005524
     18 H7          8.7940    1.5570   -0.1290 hc        1 MOL      0.005524
     19 N2          6.0540   -0.2550   -2.6230 n         1 MOL     -0.340138
     20 C7          5.1590   -1.4160   -2.7070 c3        1 MOL     -0.028290
     21 C8          5.7180   -2.6650   -2.0050 c         1 MOL      0.402225
     22 O5          5.6770   -3.7420   -2.6100 o         1 MOL     -0.533050
     23 C9          3.7060   -1.0380   -2.3020 c3        1 MOL      0.371650
     24 C10         2.8210   -2.3490   -2.6260 c3        1 MOL     -0.270376
     25 C11         3.1090    0.1460   -3.1000 c3        1 MOL     -0.208788
     26 C12         2.6170   -2.8240   -4.0560 c3        1 MOL     -0.191825
     27 H8          6.3360    0.0920   -3.5300 hn        1 MOL      0.248868
     28 H9          5.1220   -1.7360   -3.7520 h1        1 MOL      0.079803
     29 H10         3.6230   -0.8860   -1.2210 hc        1 MOL     -0.196705
     30 H11         1.8330   -2.3450   -2.1650 hc        1 MOL      0.138877
     31 H12         3.2850   -3.2040   -2.1280 hc        1 MOL      0.138877
     32 H13         2.0320    0.1150   -3.2520 hc        1 MOL      0.044849
     33 H14         3.4230    1.1140   -2.6960 hc        1 MOL      0.044849
     34 H15         3.5300    0.1210   -4.1030 hc        1 MOL      0.044849
     35 H16         2.0840   -2.0570   -4.6060 hc        1 MOL      0.032460
     36 H17         3.6180   -2.8830   -4.4970 hc        1 MOL      0.032460
     37 H18         1.9690   -3.7040   -4.0920 hc        1 MOL      0.032460
     38 N3          6.2790   -2.4310   -0.7760 n         1 MOL     -0.095637
     39 C13         6.9180   -3.3940    0.0650 c3        1 MOL     -0.026507
     40 C14         6.1140   -4.6850    0.3780 c         1 MOL      0.572612
     41 O6          6.6450   -5.7730    0.2490 o         1 MOL     -0.589688
     42 C15         7.4310   -2.6800    1.4170 c3        1 MOL     -0.251828
     43 C16         8.1960   -1.3740    1.2640 c         1 MOL      0.747264
     44 O7          8.1660   -0.4970    2.1480 o         1 MOL     -0.686535
     45 O8          8.9840   -1.2360    0.2380 o         1 MOL     -0.686535
     46 H19         6.1950   -1.4900   -0.4360 hn        1 MOL      0.075682
     47 H20         7.8550   -3.6470   -0.4180 h1        1 MOL      0.055673
     48 H21         8.1630   -3.4440    1.6670 hc        1 MOL      0.070939
     49 H22         6.6710   -2.6950    2.1940 hc        1 MOL      0.070939
     50 N4          4.8300   -4.6560    0.7340 n         1 MOL     -0.460904
     51 C17         3.9960   -3.5150    1.1120 c3        1 MOL      0.031835
     52 C18         2.8000   -3.9260    1.9730 c         1 MOL      0.566383
     53 O9          2.3430   -5.0580    1.9010 o         1 MOL     -0.595972
     54 H23         4.3920   -5.5480    0.8920 hn        1 MOL      0.279700
     55 H24         3.6540   -2.9070    0.2710 h1        1 MOL      0.061182
     56 H25         4.6330   -2.8210    1.6660 h1        1 MOL      0.061182
     57 N5          2.2600   -3.0840    2.8430 n         1 MOL     -0.322118
     58 C19         2.6500   -1.6350    3.0830 c3        1 MOL      0.227958
     59 C20         2.5590   -0.7540    1.8740 c         1 MOL      0.085753
     60 O10         3.5440   -0.2290    1.4050 o         1 MOL     -0.221392
     61 C21         3.9180   -1.5600    3.9310 c3        1 MOL     -0.456591
     62 C22         4.0670   -2.4410    5.1020 c         1 MOL      0.773643
     63 O11         4.9860   -2.1120    5.8530 o         1 MOL     -0.744863
     64 O12         3.3090   -3.3940    5.3560 o         1 MOL     -0.744863
     65 H26         1.4290   -3.4470    3.2730 hn        1 MOL      0.223212
     66 H27         1.8730   -1.3360    3.7750 h1        1 MOL      0.044175
     67 H28         3.9090   -0.5430    4.3140 hc        1 MOL      0.128749
     68 H29         4.7780   -1.7660    3.2930 hc        1 MOL      0.128749
     69 N6          1.4160   -0.6010    1.2170 n         1 MOL     -0.259281
     70 C23         0.0230   -1.1620    1.4260 c3        1 MOL     -0.016837
     71 C24        -0.2720   -2.4420    0.6880 c         1 MOL      0.487941
     72 O13         0.4630   -2.9140   -0.2140 o         1 MOL     -0.488250
     73 H30         1.5390    0.1220    0.5210 hn        1 MOL      0.183688
     74 H31        -0.6420   -0.3220    1.2240 h1        1 MOL      0.062564
     75 H32        -0.1240   -1.2760    2.5020 h1        1 MOL      0.062564
     76 N7         -1.3490   -3.1540    1.0920 n         1 MOL     -0.452954
     77 C25        -1.8790   -4.4350    0.5600 c3        1 MOL      0.085839
     78 C26        -2.5450   -4.3890   -0.8480 c         1 MOL      0.275582
     79 O14        -2.7060   -5.3670   -1.5290 o         1 MOL     -0.496440
     80 C27        -2.7140   -5.1950    1.5190 c3        1 MOL     -0.039625
     81 C28        -3.9300   -4.4070    2.1570 c3        1 MOL     -0.015709
     82 C29        -5.0090   -4.0670    1.1940 c         1 MOL      0.585963
     83 N8         -5.8600   -5.0220    0.8080 n         1 MOL     -0.700030
     84 O15        -5.1680   -2.9140    0.8130 o         1 MOL     -0.586357
     85 H33        -2.0250   -2.6680    1.6620 hn        1 MOL      0.239097
     86 H34        -0.9920   -5.0520    0.4250 h1        1 MOL      0.137526
     87 H35        -2.0230   -5.5700    2.2720 hc        1 MOL      0.031623
     88 H36        -3.1300   -6.0560    0.9960 hc        1 MOL      0.031623
     89 H37        -3.6810   -3.4870    2.6800 hc        1 MOL      0.014090
     90 H38        -4.4040   -5.0360    2.9180 hc        1 MOL      0.014090
     91 H39        -5.9550   -5.9860    1.0900 hn        1 MOL      0.349716
     92 H40        -6.5180   -4.6310    0.1420 hn        1 MOL      0.349716
     93 N9         -2.9230   -3.1860   -1.2540 n         1 MOL      0.032569
     94 C30        -3.3860   -2.9290   -2.6280 c3        1 MOL     -0.371257
     95 C31        -4.7970   -2.2810   -2.8570 c         1 MOL      0.656891
     96 O16        -5.2150   -2.2680   -4.0320 o         1 MOL     -0.592060
     97 C32        -2.3090   -2.2070   -3.5450 c3        1 MOL      0.188034
     98 C33        -1.1740   -3.2350   -3.7730 c3        1 MOL     -0.258570
     99 C34        -1.7170   -0.9090   -2.9180 c3        1 MOL     -0.258570
    100 H41        -2.7860   -2.3920   -0.6450 hn        1 MOL      0.136251
    101 H42        -3.6110   -3.9090   -3.0590 h1        1 MOL      0.164014
    102 H43        -2.6940   -1.8690   -4.5050 hc        1 MOL      0.019113
    103 H44        -1.6610   -4.1310   -4.1670 hc        1 MOL      0.073376
    104 H45        -0.5200   -2.9100   -4.5870 hc        1 MOL      0.073376
    105 H46        -0.5180   -3.2960   -2.9110 hc        1 MOL      0.073376
    106 H47        -1.0200   -0.4050   -3.5920 hc        1 MOL      0.073376
    107 H48        -2.5950   -0.2710   -2.7880 hc        1 MOL      0.073376
    108 H49        -1.1840   -1.2040   -2.0240 hc        1 MOL      0.073376
    109 N10        -5.5240   -1.7700   -1.8510 n         1 MOL     -0.425578
    110 C35        -6.8140   -1.1090   -1.9690 c3        1 MOL      0.012686
    111 C36        -6.9680    0.2790   -1.2790 c         1 MOL      0.540823
    112 O17        -7.9570    0.9580   -1.4470 o         1 MOL     -0.557031
    113 C37        -7.8310   -2.0530   -1.3430 c3        1 MOL     -0.166691
    114 C38        -7.8620   -3.5310   -1.8020 c         1 MOL      0.586575
    115 N11        -7.7740   -3.8540   -3.0580 n         1 MOL     -0.750126
    116 O18        -7.7170   -4.3850   -1.0060 o         1 MOL     -0.566539
    117 H50        -5.2960   -1.9100   -0.8760 hn        1 MOL      0.304239
    118 H51        -7.0280   -0.9430   -3.0320 h1        1 MOL      0.067656
    119 H52        -8.8150   -1.6100   -1.5380 hc        1 MOL      0.095349
    120 H53        -7.5810   -2.0370   -0.2810 hc        1 MOL      0.095349
    121 H54        -7.7860   -3.1720   -3.8140 hn        1 MOL      0.369857
    122 H55        -7.6270   -4.8450   -3.1550 hn        1 MOL      0.369857
    123 N12        -5.9970    0.6510   -0.5050 n         1 MOL     -0.450431
    124 C39        -6.1170    1.8380    0.4220 c3        1 MOL      0.192784
    125 C40        -4.9020    2.7280    0.3950 c         1 MOL      0.469975
    126 O19        -3.7760    2.2250    0.5150 o         1 MOL     -0.476610
    127 C41        -6.5930    1.3420    1.7650 c3        1 MOL     -0.032280
    128 C42        -7.8250    0.5120    1.8760 ca        1 MOL     -0.020365
    129 C43        -9.0700    1.0780    1.7380 ca        1 MOL     -0.098823
    130 C44        -7.7550   -0.9500    2.0310 ca        1 MOL     -0.098823
    131 C45       -10.2580    0.3480    1.6780 ca        1 MOL     -0.293658
    132 C46        -8.9350   -1.6850    1.9820 ca        1 MOL     -0.293658
    133 C47       -10.1700   -1.0000    1.8030 ca        1 MOL      0.370278
    134 O20       -11.3070   -1.7650    1.6750 oh        1 MOL     -0.538907
    135 H56        -5.2040    0.0460   -0.3630 hn        1 MOL      0.219333
    136 H57        -6.9610    2.4140    0.0550 h1        1 MOL      0.016561
    137 H58        -6.7000    2.1720    2.4760 hc        1 MOL      0.056222
    138 H59        -5.7340    0.7550    2.0630 hc        1 MOL      0.056222
    139 H60        -9.1740    2.1250    1.4790 ha        1 MOL      0.126632
    140 H61        -6.8150   -1.4370    2.2510 ha        1 MOL      0.126632
    141 H62       -11.1980    0.7940    1.4020 ha        1 MOL      0.140774
    142 H63        -8.9070   -2.7540    2.1070 ha        1 MOL      0.140774
    143 H64       -12.1120   -1.2500    1.7170 ho        1 MOL      0.371848
    144 N13        -5.0350    4.0780    0.4550 n         1 MOL     -0.548936
    145 C48        -4.0370    5.1460    0.6990 c3        1 MOL      0.058688
    146 C49        -2.6630    5.1580    0.0050 c         1 MOL      0.417576
    147 O21        -1.6750    5.6050    0.5860 o         1 MOL     -0.492362
    148 C50        -3.8880    5.3920    2.1910 c3        1 MOL      0.131127
    149 C51        -5.1470    5.5200    2.8960 c3        1 MOL     -0.371602
    150 C52        -5.0210    6.1680    4.3140 c         1 MOL      0.662275
    151 O22        -4.7870    5.4750    5.3200 o         1 MOL     -0.712662
    152 O23        -4.9170    7.4400    4.4280 o         1 MOL     -0.712662
    153 H65        -5.9630    4.4770    0.4030 hn        1 MOL      0.303555
    154 H66        -4.4820    6.0470    0.2840 h1        1 MOL      0.052114
    155 H67        -3.3160    6.3090    2.3500 hc        1 MOL      0.061304
    156 H68        -3.3720    4.5830    2.6960 hc        1 MOL      0.061304
    157 H69        -5.5350    4.5170    3.0770 hc        1 MOL      0.038261
    158 H70        -5.9290    6.0740    2.3700 hc        1 MOL      0.038261
    159 N14        -2.5150    4.5820   -1.1750 n         1 MOL     -0.401953
    160 C53        -1.3000    4.3670   -2.0010 c3        1 MOL     -0.025661
    161 C54        -1.4370    4.7340   -3.4620 c         1 MOL      0.415253
    162 O24        -0.4450    4.9090   -4.2130 o         1 MOL     -0.511048
    163 C55        -0.8480    2.7950   -1.9740 c3        1 MOL     -0.098427
    164 C56        -0.1560    2.3220   -0.6520 c3        1 MOL      0.109270
    165 C57         1.2860    2.8070   -0.4380 c         1 MOL      0.709427
    166 O25         2.1090    2.0090    0.0820 o         1 MOL     -0.677739
    167 O26         1.6020    3.9950   -0.6930 o         1 MOL     -0.677739
    168 H71        -3.3050    4.1990   -1.6720 hn        1 MOL      0.241290
    169 H72        -0.4790    5.0330   -1.7340 h1        1 MOL      0.181057
    170 H73        -0.1620    2.5730   -2.7890 hc        1 MOL      0.020743
    171 H74        -1.7630    2.2160   -2.0940 hc        1 MOL      0.020743
    172 H75        -0.0820    1.2320   -0.5850 hc        1 MOL     -0.021855
    173 H76        -0.6820    2.6280    0.2620 hc        1 MOL     -0.021855
    174 N15        -2.6360    5.1630   -3.8600 n         1 MOL     -0.213161
    175 C58        -2.9250    5.6990   -5.2050 c3        1 MOL     -0.259919
    176 H77        -2.5080    6.7020   -5.2920 h1        1 MOL      0.106476
    177 H78        -2.4750    5.0530   -5.9580 h1        1 MOL      0.106476
    178 H79        -4.0030    5.7400   -5.3570 h1        1 MOL      0.106476
    179 H80        -3.4040    5.1680   -3.2060 hn        1 MOL      0.212909
    180 Ca1         4.4810    2.1200    0.9570 Ca        1 MOL      1.719737
    181 O27         2.9970    2.4510    3.0950 oh        1 MOL     -0.826070
    182 H81         3.0290    2.5930    4.0410 ho        1 MOL      0.396467
    183 H82         2.0580    2.4720    2.8790 ho        1 MOL      0.396467
    184 O28         3.8990    4.7190    0.6330 oh        1 MOL     -0.826070
    185 H83         3.1850    4.8410    0.0110 ho        1 MOL      0.396467
    186 H84         4.6040    5.2830    0.3010 ho        1 MOL      0.396467
    187 O29         5.8450    0.6770    2.6610 oh        1 MOL     -0.826070
    188 H85         5.8750    0.8500    3.6050 ho        1 MOL      0.396467
    189 H86         6.6850    0.2570    2.4700 ho        1 MOL      0.396467
    190 O30         5.8070    3.6350    3.5000 oh        1 MOL     -0.826070
    191 H87         5.3520    3.9540    4.2830 ho        1 MOL      0.396467
    192 H88         5.9930    4.4190    2.9910 ho        1 MOL      0.396467
@<TRIPOS>BOND
     1    1    2 1   
     2    1    4 1   
     3    1    5 1   
     4    1    6 1   
     5    2    3 2   
     6    2    7 1   
     7    7    8 1   
     8    7   15 1   
     9    8    9 1   
    10    8   11 1   
    11    8   16 1   
    12    9   10 2   
    13    9   19 1   
    14   11   12 1   
    15   11   17 1   
    16   11   18 1   
    17   12   13 1   
    18   12   14 1   
    19   19   20 1   
    20   19   27 1   
    21   20   21 1   
    22   20   23 1   
    23   20   28 1   
    24   21   22 2   
    25   21   38 1   
    26   23   24 1   
    27   23   25 1   
    28   23   29 1   
    29   24   26 1   
    30   24   30 1   
    31   24   31 1   
    32   25   32 1   
    33   25   33 1   
    34   25   34 1   
    35   26   35 1   
    36   26   36 1   
    37   26   37 1   
    38   38   39 1   
    39   38   46 1   
    40   39   40 1   
    41   39   42 1   
    42   39   47 1   
    43   40   41 2   
    44   40   50 1   
    45   42   43 1   
    46   42   48 1   
    47   42   49 1   
    48   43   44 1   
    49   43   45 1   
    50   50   51 1   
    51   50   54 1   
    52   51   52 1   
    53   51   55 1   
    54   51   56 1   
    55   52   53 2   
    56   52   57 1   
    57   57   58 1   
    58   57   65 1   
    59   58   59 1   
    60   58   61 1   
    61   58   66 1   
    62   59   60 2   
    63   59   69 1   
    64   61   62 1   
    65   61   67 1   
    66   61   68 1   
    67   62   63 1   
    68   62   64 1   
    69   69   70 1   
    70   69   73 1   
    71   70   71 1   
    72   70   74 1   
    73   70   75 1   
    74   71   72 2   
    75   71   76 1   
    76   76   77 1   
    77   76   85 1   
    78   77   78 1   
    79   77   80 1   
    80   77   86 1   
    81   78   79 2   
    82   78   93 1   
    83   80   81 1   
    84   80   87 1   
    85   80   88 1   
    86   81   82 1   
    87   81   89 1   
    88   81   90 1   
    89   82   83 1   
    90   82   84 2   
    91   83   91 1   
    92   83   92 1   
    93   93   94 1   
    94   93  100 1   
    95   94   95 1   
    96   94   97 1   
    97   94  101 1   
    98   95   96 2   
    99   95  109 1   
   100   97   98 1   
   101   97   99 1   
   102   97  102 1   
   103   98  103 1   
   104   98  104 1   
   105   98  105 1   
   106   99  106 1   
   107   99  107 1   
   108   99  108 1   
   109  109  110 1   
   110  109  117 1   
   111  110  111 1   
   112  110  113 1   
   113  110  118 1   
   114  111  112 2   
   115  111  123 1   
   116  113  114 1   
   117  113  119 1   
   118  113  120 1   
   119  114  115 1   
   120  114  116 2   
   121  115  121 1   
   122  115  122 1   
   123  123  124 1   
   124  123  135 1   
   125  124  125 1   
   126  124  127 1   
   127  124  136 1   
   128  125  126 2   
   129  125  144 1   
   130  127  128 1   
   131  127  137 1   
   132  127  138 1   
   133  128  129 ar  
   134  128  130 ar  
   135  129  131 ar  
   136  129  139 1   
   137  130  132 ar  
   138  130  140 1   
   139  131  133 ar  
   140  131  141 1   
   141  132  133 ar  
   142  132  142 1   
   143  133  134 1   
   144  134  143 1   
   145  144  145 1   
   146  144  153 1   
   147  145  146 1   
   148  145  148 1   
   149  145  154 1   
   150  146  147 2   
   151  146  159 1   
   152  148  149 1   
   153  148  155 1   
   154  148  156 1   
   155  149  150 1   
   156  149  157 1   
   157  149  158 1   
   158  150  151 1   
   159  150  152 1   
   160  159  160 1   
   161  159  168 1   
   162  160  161 1   
   163  160  163 1   
   164  160  169 1   
   165  161  162 2   
   166  161  174 1   
   167  163  164 1   
   168  163  170 1   
   169  163  171 1   
   170  164  165 1   
   171  164  172 1   
   172  164  173 1   
   173  165  166 1   
   174  165  167 1   
   175  174  175 1   
   176  174  179 1   
   177  175  176 1   
   178  175  177 1   
   179  175  178 1   
   180  181  182 1   
   181  181  183 1   
   182  184  185 1   
   183  184  186 1   
   184  187  188 1   
   185  187  189 1   
   186  190  191 1   
   187  190  192 1   
@<TRIPOS>SUBSTRUCTURE
     1 MOL         1 TEMP              0 ****  ****    0 ROOT
