@<TRIPOS>MOLECULE
MOL
  181   177     1     0     0
SMALL
resp


@<TRIPOS>ATOM
      1 C1          8.4510   -5.9590    3.9930 c3        1 MOL     -0.292610
      2 C2          7.8210   -5.2970    2.7280 c         1 MOL      0.652932
      3 O1          6.6200   -5.5150    2.4370 o         1 MOL     -0.582648
      4 H1          8.0160   -5.5170    4.8880 hc        1 MOL      0.065806
      5 H2          8.2490   -7.0300    3.9820 hc        1 MOL      0.065806
      6 H3          9.5280   -5.7910    3.9930 hc        1 MOL      0.065806
      7 N1          8.5060   -4.5420    1.8820 n         1 MOL     -0.464853
      8 C3         10.0090   -4.1080    1.9460 c3        1 MOL      0.021117
      9 C4         10.5530   -4.0460    0.5060 c         1 MOL      0.501488
     10 O2          9.9810   -4.7400   -0.3390 o         1 MOL     -0.480096
     11 C5         10.0380   -2.8170    2.7030 c3        1 MOL     -0.148207
     12 C6          9.1590   -1.6490    2.2300 c         1 MOL      0.517920
     13 O3          8.1490   -1.3690    2.8640 o         1 MOL     -0.598132
     14 O4          9.5540   -0.9680    1.2680 o         1 MOL     -0.598132
     15 H4          7.9990   -4.2250    1.0600 hn        1 MOL      0.359301
     16 H5         10.6480   -4.7520    2.5480 h1        1 MOL      0.071555
     17 H6         11.0790   -2.4860    2.6070 hc        1 MOL      0.017831
     18 H7          9.7150   -2.8590    3.7470 hc        1 MOL      0.017831
     19 N2         11.6230   -3.3410    0.1900 n         1 MOL     -0.580327
     20 C7         12.0200   -2.9430   -1.1290 c3        1 MOL      0.548898
     21 C8         10.9010   -2.3980   -2.1080 c         1 MOL      0.203565
     22 O5         10.7230   -2.7530   -3.2660 o         1 MOL     -0.475800
     23 C9         12.8320   -4.0130   -1.7950 c3        1 MOL     -0.438277
     24 H8         12.0670   -2.8890    0.9790 hn        1 MOL      0.306583
     25 H9         12.7830   -2.1690   -1.0690 h1        1 MOL     -0.060614
     26 H10        12.2680   -4.9410   -1.8060 hc        1 MOL      0.099070
     27 H11        13.0400   -3.7240   -2.8300 hc        1 MOL      0.099070
     28 H12        13.6940   -4.2500   -1.1650 hc        1 MOL      0.099070
     29 N3         10.0590   -1.5740   -1.5130 n         1 MOL     -0.033394
     30 C10         8.9710   -0.8500   -2.1550 c3        1 MOL      0.014735
     31 C11         8.8890    0.6530   -1.6910 c         1 MOL      0.264800
     32 O6          9.1970    1.0520   -0.5630 o         1 MOL     -0.463917
     33 C12         7.5910   -1.5090   -1.9440 c3        1 MOL      0.023816
     34 C13         7.1520   -1.8040   -0.5280 c         1 MOL      0.836767
     35 O7          7.1770   -2.9590   -0.0410 o         1 MOL     -0.727754
     36 O8          6.6380   -0.9020    0.0980 o         1 MOL     -0.727754
     37 H13        10.1700   -1.3220   -0.5430 hn        1 MOL      0.000376
     38 H14         9.1740   -0.9000   -3.2290 h1        1 MOL      0.035227
     39 H15         7.5190   -2.4350   -2.5010 hc        1 MOL     -0.024705
     40 H16         6.8550   -0.9010   -2.4710 hc        1 MOL     -0.024705
     41 N4          8.3170    1.4810   -2.5520 n         1 MOL     -0.169852
     42 C14         7.8690    2.8450   -2.4050 c3        1 MOL     -0.392389
     43 C15         6.8340    3.1580   -1.3660 c         1 MOL      0.789183
     44 O9          6.6190    2.2610   -0.5240 o         1 MOL     -0.577964
     45 H17         8.2970    1.1300   -3.5000 hn        1 MOL      0.253360
     46 H18         7.4970    3.2770   -3.3290 h1        1 MOL      0.133172
     47 H19         8.7500    3.4270   -2.1480 h1        1 MOL      0.133172
     48 N5          6.3230    4.3840   -1.3380 n         1 MOL     -0.682986
     49 C16         5.2010    4.7760   -0.4680 c3        1 MOL      0.351858
     50 C17         3.8420    4.1230   -0.8300 c         1 MOL      0.326941
     51 O10         2.8220    4.6770   -0.4130 o         1 MOL     -0.458191
     52 C18         5.1180    6.3110   -0.3440 c3        1 MOL     -0.219781
     53 C19         6.3430    6.9010    0.2860 c         1 MOL      0.732413
     54 N6          6.6090    8.0990   -0.1510 n         1 MOL     -0.802950
     55 O11         7.0020    6.3520    1.1620 o         1 MOL     -0.578886
     56 H20         6.6310    5.0820   -1.9970 hn        1 MOL      0.308257
     57 H21         5.5210    4.3630    0.4910 h1        1 MOL     -0.017289
     58 H22         4.2720    6.5860    0.2740 hc        1 MOL      0.070017
     59 H23         5.0400    6.7620   -1.3380 hc        1 MOL      0.070017
     60 H24         6.0790    8.5810   -0.8490 hn        1 MOL      0.369873
     61 H25         7.2830    8.6650    0.3450 hn        1 MOL      0.369873
     62 N7          3.8860    2.9730   -1.4710 n         1 MOL     -0.313605
     63 C20         2.7240    2.3090   -1.9950 c3        1 MOL     -0.196292
     64 C21         2.0710    1.3370   -1.0020 c         1 MOL      0.638157
     65 O12         2.7650    0.8880   -0.0080 o         1 MOL     -0.549619
     66 H26         4.7650    2.6370   -1.8190 hn        1 MOL      0.258650
     67 H27         3.0620    1.7620   -2.8730 h1        1 MOL      0.132675
     68 H28         2.0020    3.0910   -2.2440 h1        1 MOL      0.132675
     69 N8          0.7480    1.0130   -1.1090 n         1 MOL     -0.443420
     70 C22        -0.2360    1.1950   -2.2410 c3        1 MOL     -0.320799
     71 C23        -1.7140    1.1810   -1.7020 c         1 MOL      0.875921
     72 O13        -2.5310    1.9120   -2.2630 o         1 MOL     -0.583293
     73 C24         0.0320    0.1520   -3.3020 c3        1 MOL      0.300348
     74 C25        -0.3660   -1.3350   -2.9560 c3        1 MOL     -0.354182
     75 O14        -0.7170    0.5080   -4.4340 oh        1 MOL     -0.545163
     76 H29         0.5000    0.4600   -0.3000 hn        1 MOL      0.261560
     77 H30        -0.2150    2.2300   -2.5910 h1        1 MOL      0.141562
     78 H31         1.0680    0.2700   -3.6290 h1        1 MOL      0.013880
     79 H32        -0.0570    0.9710   -4.9530 ho        1 MOL      0.361377
     80 H33        -0.0420   -2.0200   -3.7330 hc        1 MOL      0.108989
     81 H34        -0.0910   -1.6510   -1.9520 hc        1 MOL      0.108989
     82 H35        -1.4530   -1.3910   -2.9830 hc        1 MOL      0.108989
     83 N9         -2.0760    0.4410   -0.6460 n         1 MOL     -0.605597
     84 C26        -3.4900    0.3970   -0.1180 c3        1 MOL     -0.164418
     85 C27        -3.6630    1.6080    0.8490 c         1 MOL      0.544654
     86 O15        -2.9410    1.6730    1.8520 o         1 MOL     -0.592809
     87 C28        -3.7970   -0.9380    0.5760 c3        1 MOL      0.106493
     88 C29        -3.5070   -2.2030   -0.2690 c3        1 MOL     -0.067732
     89 C30        -5.3450   -1.0070    0.9740 c3        1 MOL     -0.142139
     90 C31        -3.7470   -3.5960    0.3920 c3        1 MOL     -0.295216
     91 H36        -1.3730   -0.0580   -0.1240 hn        1 MOL      0.377285
     92 H37        -4.2310    0.4660   -0.9200 h1        1 MOL      0.152178
     93 H38        -3.1470   -0.9320    1.4630 hc        1 MOL      0.011167
     94 H39        -2.4760   -2.2330   -0.5810 hc        1 MOL      0.058785
     95 H40        -4.1750   -2.1380   -1.1260 hc        1 MOL      0.058785
     96 H41        -5.9640   -0.8550    0.0960 hc        1 MOL      0.051635
     97 H42        -5.5400   -1.9170    1.5560 hc        1 MOL      0.051635
     98 H43        -5.6130   -0.1970    1.6590 hc        1 MOL      0.051635
     99 H44        -3.1620   -3.6230    1.3140 hc        1 MOL      0.072530
    100 H45        -4.7690   -3.8130    0.7130 hc        1 MOL      0.072530
    101 H46        -3.4510   -4.3920   -0.2920 hc        1 MOL      0.072530
    102 N10        -4.5590    2.5610    0.6820 n         1 MOL     -0.424607
    103 C32        -5.6650    2.6380   -0.2990 c3        1 MOL      0.321470
    104 C33        -6.9450    2.2720    0.3560 c         1 MOL      0.549651
    105 O16        -6.8920    2.0420    1.5390 o         1 MOL     -0.542530
    106 C34        -5.6340    4.0250   -0.9870 c3        1 MOL     -0.313915
    107 C35        -5.5500    5.1940   -0.0380 c         1 MOL      0.780880
    108 O17        -5.5620    6.2890   -0.6240 o         1 MOL     -0.739537
    109 O18        -5.4490    5.0820    1.1880 o         1 MOL     -0.739537
    110 H47        -4.6940    3.2440    1.4160 hn        1 MOL      0.311274
    111 H48        -5.5080    1.9200   -1.1090 h1        1 MOL     -0.034313
    112 H49        -6.5650    4.1580   -1.5410 hc        1 MOL      0.048613
    113 H50        -4.7620    4.0890   -1.6350 hc        1 MOL      0.048613
    114 N11        -8.0910    2.2140   -0.3250 n         1 MOL     -0.578179
    115 C36        -9.3320    1.7000    0.2400 c3        1 MOL      0.356297
    116 C37       -10.3300    1.3620   -0.8670 c         1 MOL      0.354466
    117 O19       -10.3410    2.1130   -1.8180 o         1 MOL     -0.516533
    118 C38       -10.0150    2.7360    1.1920 c3        1 MOL     -0.271444
    119 C39       -11.1230    2.2510    2.1250 ca        1 MOL      0.118954
    120 C40       -12.4630    2.5680    1.8750 ca        1 MOL     -0.154631
    121 C41       -10.8360    1.3670    3.1790 ca        1 MOL     -0.154631
    122 C42       -13.5160    1.9840    2.5870 ca        1 MOL     -0.096764
    123 C43       -11.8600    0.7940    3.9580 ca        1 MOL     -0.096764
    124 C44       -13.2180    1.0860    3.6550 ca        1 MOL     -0.186665
    125 H51        -8.0930    2.1640   -1.3400 hn        1 MOL      0.302932
    126 H52        -9.1040    0.8390    0.8700 h1        1 MOL      0.007773
    127 H53       -10.3670    3.6050    0.6360 hc        1 MOL      0.098993
    128 H54        -9.2370    3.0360    1.8950 hc        1 MOL      0.098993
    129 H55       -12.7530    3.1830    1.0380 ha        1 MOL      0.114245
    130 H56        -9.8050    1.0970    3.3990 ha        1 MOL      0.114245
    131 H57       -14.5470    2.2130    2.3510 ha        1 MOL      0.097700
    132 H58       -11.6390    0.0650    4.7210 ha        1 MOL      0.097700
    133 H59       -13.9620    0.5780    4.2390 ha        1 MOL      0.111728
    134 N12       -11.1900    0.3190   -0.8570 n         1 MOL     -0.029679
    135 C45       -11.1920   -0.9380   -0.0620 c3        1 MOL     -0.256359
    136 C46        -9.8710   -1.7300   -0.1550 c         1 MOL      0.918186
    137 O20        -8.8000   -1.1660   -0.3280 o         1 MOL     -0.594275
    138 C47       -12.4760   -1.6470   -0.5360 c3        1 MOL      0.005509
    139 C48       -12.5980   -1.3650   -2.0000 c3        1 MOL     -0.051502
    140 C49       -12.2400    0.1550   -1.8830 c3        1 MOL      0.015165
    141 H60       -11.2570   -0.6750    1.0000 h1        1 MOL      0.051469
    142 H61       -12.5040   -2.6960   -0.2550 hc        1 MOL      0.016498
    143 H62       -13.3950   -1.2200   -0.1290 hc        1 MOL      0.016498
    144 H63       -11.7790   -1.9260   -2.4560 hc        1 MOL      0.039088
    145 H64       -13.6110   -1.5640   -2.3430 hc        1 MOL      0.039088
    146 H65       -11.9950    0.5740   -2.8560 h1        1 MOL      0.031500
    147 H66       -13.1050    0.6800   -1.4700 h1        1 MOL      0.031500
    148 N13        -9.9230   -3.0840    0.0000 n         1 MOL     -0.913578
    149 C50        -8.7210   -4.0090    0.0370 c3        1 MOL      0.341665
    150 C51        -8.9040   -5.0260    1.0730 c         1 MOL      0.362133
    151 O21        -8.8940   -6.2160    0.7270 o         1 MOL     -0.512387
    152 C52        -8.4720   -4.5420   -1.3980 c3        1 MOL      0.024554
    153 C53        -7.2060   -5.3610   -1.7540 c3        1 MOL     -0.229100
    154 C54        -7.1660   -5.5900   -3.2610 c         1 MOL      0.704847
    155 O22        -7.0390   -6.7710   -3.6870 o         1 MOL     -0.717581
    156 O23        -7.4160   -4.6260   -4.0050 o         1 MOL     -0.717581
    157 H67       -10.8200   -3.5460    0.0040 hn        1 MOL      0.395691
    158 H68        -7.8790   -3.3490    0.2700 h1        1 MOL      0.037664
    159 H69        -8.5190   -3.6830   -2.0590 hc        1 MOL      0.023658
    160 H70        -9.2610   -5.2150   -1.7220 hc        1 MOL      0.023658
    161 H71        -7.2940   -6.3410   -1.2720 hc        1 MOL      0.030800
    162 H72        -6.3170   -4.9220   -1.3000 hc        1 MOL      0.030800
    163 N14        -9.1920   -4.7190    2.3650 n         1 MOL     -0.384644
    164 C55        -9.1760   -3.4050    3.1050 c3        1 MOL      0.013684
    165 H73        -8.4420   -3.4500    3.9090 h1        1 MOL      0.045790
    166 H74        -8.9110   -2.6030    2.4160 h1        1 MOL      0.045790
    167 H75       -10.1640   -3.2130    3.5250 h1        1 MOL      0.045790
    168 H76        -9.3680   -5.5240    2.9560 hn        1 MOL      0.262662
    169 Ca1         7.7220    0.9630    1.6300 Ca        1 MOL      1.771540
    170 O24         7.0710    3.6790    2.2020 oh        1 MOL     -0.882824
    171 H77         7.0500    4.5840    1.9110 ho        1 MOL      0.425207
    172 H78         6.7430    3.6920    3.0940 ho        1 MOL      0.425207
    173 O25        10.0260    1.9980    2.5460 oh        1 MOL     -0.882824
    174 H79        10.5320    2.8020    2.5080 ho        1 MOL      0.425207
    175 H80        10.5290    1.4160    3.1140 ho        1 MOL      0.425207
    176 O26         6.7290    0.7510    4.1140 oh        1 MOL     -0.882824
    177 H81         6.0710    1.3830    4.3930 ho        1 MOL      0.425207
    178 H82         6.9360    0.2560    4.9070 ho        1 MOL      0.425207
    179 O27         4.9160    1.4440    1.6170 oh        1 MOL     -0.882824
    180 H83         4.3870    1.4910    0.8190 ho        1 MOL      0.425207
    181 H84         4.3460    1.7950    2.3080 ho        1 MOL      0.425207
@<TRIPOS>BOND
     1    1    2 1   
     2    1    4 1   
     3    1    5 1   
     4    1    6 1   
     5    2    3 2   
     6    2    7 1   
     7    7    8 1   
     8    7   15 1   
     9    8    9 1   
    10    8   11 1   
    11    8   16 1   
    12    9   10 2   
    13    9   19 1   
    14   11   12 1   
    15   11   17 1   
    16   11   18 1   
    17   12   13 1   
    18   12   14 1   
    19   19   20 1   
    20   19   24 1   
    21   20   21 1   
    22   20   23 1   
    23   20   25 1   
    24   21   22 2   
    25   21   29 1   
    26   23   26 1   
    27   23   27 1   
    28   23   28 1   
    29   29   30 1   
    30   29   37 1   
    31   30   31 1   
    32   30   33 1   
    33   30   38 1   
    34   31   32 2   
    35   31   41 1   
    36   33   34 1   
    37   33   39 1   
    38   33   40 1   
    39   34   35 1   
    40   34   36 1   
    41   41   42 1   
    42   41   45 1   
    43   42   43 1   
    44   42   46 1   
    45   42   47 1   
    46   43   44 2   
    47   43   48 1   
    48   48   49 1   
    49   48   56 1   
    50   49   50 1   
    51   49   52 1   
    52   49   57 1   
    53   50   51 2   
    54   50   62 1   
    55   52   53 1   
    56   52   58 1   
    57   52   59 1   
    58   53   54 1   
    59   53   55 2   
    60   54   60 1   
    61   54   61 1   
    62   62   63 1   
    63   62   66 1   
    64   63   64 1   
    65   63   67 1   
    66   63   68 1   
    67   64   65 2   
    68   64   69 1   
    69   69   70 1   
    70   69   76 1   
    71   70   71 1   
    72   70   73 1   
    73   70   77 1   
    74   71   72 2   
    75   71   83 1   
    76   73   74 1   
    77   73   75 1   
    78   73   78 1   
    79   74   80 1   
    80   74   81 1   
    81   74   82 1   
    82   75   79 1   
    83   83   84 1   
    84   83   91 1   
    85   84   85 1   
    86   84   87 1   
    87   84   92 1   
    88   85   86 2   
    89   85  102 1   
    90   87   88 1   
    91   87   89 1   
    92   87   93 1   
    93   88   90 1   
    94   88   94 1   
    95   88   95 1   
    96   89   96 1   
    97   89   97 1   
    98   89   98 1   
    99   90   99 1   
   100   90  100 1   
   101   90  101 1   
   102  102  103 1   
   103  102  110 1   
   104  103  104 1   
   105  103  106 1   
   106  103  111 1   
   107  104  105 2   
   108  104  114 1   
   109  106  107 1   
   110  106  112 1   
   111  106  113 1   
   112  107  108 1   
   113  107  109 1   
   114  114  115 1   
   115  114  125 1   
   116  115  116 1   
   117  115  118 1   
   118  115  126 1   
   119  116  117 2   
   120  116  134 1   
   121  118  119 1   
   122  118  127 1   
   123  118  128 1   
   124  119  120 ar  
   125  119  121 ar  
   126  120  122 ar  
   127  120  129 1   
   128  121  123 ar  
   129  121  130 1   
   130  122  124 ar  
   131  122  131 1   
   132  123  124 ar  
   133  123  132 1   
   134  124  133 1   
   135  134  135 1   
   136  134  140 1   
   137  135  136 1   
   138  135  138 1   
   139  135  141 1   
   140  136  137 2   
   141  136  148 1   
   142  138  139 1   
   143  138  142 1   
   144  138  143 1   
   145  139  140 1   
   146  139  144 1   
   147  139  145 1   
   148  140  146 1   
   149  140  147 1   
   150  148  149 1   
   151  148  157 1   
   152  149  150 1   
   153  149  152 1   
   154  149  158 1   
   155  150  151 2   
   156  150  163 1   
   157  152  153 1   
   158  152  159 1   
   159  152  160 1   
   160  153  154 1   
   161  153  161 1   
   162  153  162 1   
   163  154  155 1   
   164  154  156 1   
   165  163  164 1   
   166  163  168 1   
   167  164  165 1   
   168  164  166 1   
   169  164  167 1   
   170  170  171 1   
   171  170  172 1   
   172  173  174 1   
   173  173  175 1   
   174  176  177 1   
   175  176  178 1   
   176  179  180 1   
   177  179  181 1   
@<TRIPOS>SUBSTRUCTURE
     1 MOL         1 TEMP              0 ****  ****    0 ROOT
