@<TRIPOS>MOLECULE
MOL
  181   177     1     0     0
SMALL
resp


@<TRIPOS>ATOM
      1 C1         -9.4490   -8.1870   -1.0160 c3        1 MOL     -0.302981
      2 C2         -8.9420   -7.2040    0.0920 c         1 MOL      0.655851
      3 O1         -9.1390   -7.2930    1.2380 o         1 MOL     -0.588114
      4 H1        -10.4870   -7.9570   -1.2580 hc        1 MOL      0.084500
      5 H2         -8.8350   -8.0760   -1.9100 hc        1 MOL      0.084500
      6 H3         -9.3800   -9.2120   -0.6530 hc        1 MOL      0.084500
      7 N1         -8.2700   -6.1340   -0.3350 n         1 MOL     -0.299862
      8 C3         -7.9580   -5.6680   -1.6880 c3        1 MOL     -0.315207
      9 C4         -7.6580   -4.1330   -1.7100 c         1 MOL      0.676937
     10 O2         -7.3410   -3.5420   -0.6240 o         1 MOL     -0.550783
     11 C5         -6.6990   -6.3490   -2.1770 c3        1 MOL     -0.230965
     12 C6         -5.5050   -6.4580   -1.2480 c         1 MOL      0.806100
     13 O3         -4.5670   -7.1200   -1.7500 o         1 MOL     -0.726031
     14 O4         -5.5130   -5.9820   -0.0740 o         1 MOL     -0.726031
     15 H4         -8.0570   -5.4440    0.3770 hn        1 MOL      0.190917
     16 H5         -8.7840   -5.7800   -2.3930 h1        1 MOL      0.128522
     17 H6         -6.2870   -5.7570   -3.0060 hc        1 MOL      0.090864
     18 H7         -6.8670   -7.3990   -2.4180 hc        1 MOL      0.090864
     19 N2         -7.6770   -3.4400   -2.8810 n         1 MOL     -0.549860
     20 C7         -7.4360   -1.9690   -3.0310 c3        1 MOL      0.258256
     21 C8         -8.1490   -1.1040   -1.9400 c         1 MOL      0.679185
     22 O5         -9.3050   -1.3920   -1.6580 o         1 MOL     -0.575171
     23 C9         -7.9250   -1.5230   -4.4160 c3        1 MOL     -0.458960
     24 H8         -7.8940   -3.8890   -3.7530 hn        1 MOL      0.310879
     25 H9         -6.3650   -1.8510   -2.8560 h1        1 MOL     -0.023230
     26 H10        -7.4280   -2.1520   -5.1550 hc        1 MOL      0.135242
     27 H11        -9.0110   -1.5180   -4.2790 hc        1 MOL      0.135242
     28 H12        -7.6870   -0.4760   -4.5990 hc        1 MOL      0.135242
     29 N3         -7.4760   -0.1320   -1.3280 n         1 MOL     -0.677609
     30 C10        -8.0600    0.5610   -0.1280 c3        1 MOL      0.175717
     31 C11        -8.5470    1.9610   -0.5370 c         1 MOL      0.613047
     32 O6         -8.0670    2.6210   -1.4290 o         1 MOL     -0.490542
     33 C12        -7.0360    0.5930    0.9680 c3        1 MOL     -0.642100
     34 C13        -6.5460   -0.7810    1.3930 c         1 MOL      0.903396
     35 O7         -5.4360   -1.1800    1.0430 o         1 MOL     -0.724128
     36 O8         -7.3090   -1.5950    1.9480 o         1 MOL     -0.724128
     37 H13        -6.4870   -0.0920   -1.5160 hn        1 MOL      0.315891
     38 H14        -8.8720   -0.0440    0.2770 h1        1 MOL      0.061375
     39 H15        -7.5570    1.1540    1.7490 hc        1 MOL      0.179317
     40 H16        -6.2910    1.2380    0.5090 hc        1 MOL      0.179317
     41 N4         -9.4400    2.4840    0.2630 n         1 MOL     -0.521195
     42 C14        -9.8110    3.9120    0.3980 c3        1 MOL     -0.065862
     43 C15        -8.6390    4.8570    0.3340 c         1 MOL      0.489403
     44 O9         -8.7910    5.8530   -0.3270 o         1 MOL     -0.544176
     45 H17        -9.6540    1.8970    1.0580 hn        1 MOL      0.292740
     46 H18       -10.3710    3.9760    1.3280 h1        1 MOL      0.101128
     47 H19       -10.5130    4.0900   -0.4270 h1        1 MOL      0.101128
     48 N5         -7.5600    4.7710    1.1040 n         1 MOL     -0.265331
     49 C16        -6.4270    5.6830    1.0670 c3        1 MOL      0.115900
     50 C17        -5.1330    4.9800    0.6540 c         1 MOL      0.496875
     51 O10        -4.9580    3.8220    1.0140 o         1 MOL     -0.529446
     52 C18        -6.2980    6.2770    2.4940 c3        1 MOL      0.000867
     53 C19        -5.8020    7.6630    2.4730 c         1 MOL      0.547209
     54 N6         -4.6300    7.8820    2.0380 n         1 MOL     -0.675240
     55 O11        -6.5630    8.5590    2.8420 o         1 MOL     -0.593970
     56 H20        -7.3730    3.9490    1.6510 hn        1 MOL      0.182466
     57 H21        -6.6490    6.5440    0.4500 h1        1 MOL      0.050492
     58 H22        -5.6740    5.6530    3.1360 hc        1 MOL      0.001632
     59 H23        -7.3110    6.2200    2.8970 hc        1 MOL      0.001632
     60 H24        -3.9800    7.1390    1.8590 hn        1 MOL      0.328951
     61 H25        -4.4060    8.8640    1.9680 hn        1 MOL      0.328951
     62 N7         -4.3320    5.6510   -0.1480 n         1 MOL     -0.519052
     63 C20        -2.9860    5.0930   -0.4230 c3        1 MOL      0.129608
     64 C21        -2.0130    5.5670    0.6840 c         1 MOL      0.608013
     65 O12        -2.4650    6.0980    1.6880 o         1 MOL     -0.569038
     66 H26        -4.5740    6.6170   -0.3160 hn        1 MOL      0.290778
     67 H27        -2.7010    5.4890   -1.4050 h1        1 MOL      0.062979
     68 H28        -3.0510    4.0100   -0.4950 h1        1 MOL      0.062979
     69 N8         -0.7100    5.3860    0.5370 n         1 MOL     -0.556874
     70 C22         0.0860    4.9690   -0.6340 c3        1 MOL      0.021054
     71 C23         1.2800    4.1800   -0.1530 c         1 MOL      0.503743
     72 O13         2.1890    4.7180    0.4420 o         1 MOL     -0.545739
     73 C24         0.5200    6.2450   -1.3330 c3        1 MOL      0.297820
     74 C25         1.3390    5.9020   -2.5900 c3        1 MOL     -0.307373
     75 O14        -0.5900    6.8550   -1.7990 oh        1 MOL     -0.648265
     76 H29        -0.1770    5.7620    1.3010 hn        1 MOL      0.329544
     77 H30        -0.4990    4.3100   -1.2840 h1        1 MOL      0.081764
     78 H31         1.0400    6.9450   -0.6840 h1        1 MOL      0.033563
     79 H32        -0.3230    7.7030   -2.1420 ho        1 MOL      0.413714
     80 H33         0.9560    5.0250   -3.1070 hc        1 MOL      0.089312
     81 H34         1.3580    6.8080   -3.1910 hc        1 MOL      0.089312
     82 H35         2.3640    5.6560   -2.3080 hc        1 MOL      0.089312
     83 N9          1.3510    2.9330   -0.6160 n         1 MOL     -0.430229
     84 C26         2.5460    2.1160   -0.4370 c3        1 MOL      0.109791
     85 C27         3.1720    1.9520   -1.8140 c         1 MOL      0.681963
     86 O15         2.4590    1.7430   -2.7730 o         1 MOL     -0.613395
     87 C28         2.0680    0.7670    0.0800 c3        1 MOL     -0.010445
     88 C29         1.4110    1.0300    1.4660 c3        1 MOL      0.075230
     89 C30         3.3090   -0.2410    0.2930 c3        1 MOL     -0.027700
     90 C31         1.0250   -0.1970    2.2790 c3        1 MOL     -0.247189
     91 H36         0.5580    2.5390   -1.1060 hn        1 MOL      0.257774
     92 H37         3.2280    2.5610    0.2800 h1        1 MOL      0.076669
     93 H38         1.3320    0.3210   -0.5950 hc        1 MOL      0.017880
     94 H39         0.5490    1.6930    1.4270 hc        1 MOL     -0.004992
     95 H40         2.1230    1.5510    2.1140 hc        1 MOL     -0.004992
     96 H41         3.8460   -0.3820   -0.6430 hc        1 MOL      0.028475
     97 H42         3.9350    0.1710    1.0790 hc        1 MOL      0.028475
     98 H43         2.9360   -1.2360    0.5400 hc        1 MOL      0.028475
     99 H44         0.2850   -0.0510    3.0550 hc        1 MOL      0.051137
    100 H45         0.5880   -0.8770    1.5470 hc        1 MOL      0.051137
    101 H46         1.9500   -0.6980    2.5610 hc        1 MOL      0.051137
    102 N10         4.4590    2.2240   -2.0220 n         1 MOL     -0.690469
    103 C32         5.5820    2.2740   -0.9830 c3        1 MOL      0.446925
    104 C33         6.6400    1.2270   -1.2250 c         1 MOL      0.394723
    105 O16         6.6280    0.4980   -2.2250 o         1 MOL     -0.473652
    106 C34         6.1970    3.6990   -0.8320 c3        1 MOL     -0.258604
    107 C35         6.6130    4.2300   -2.2350 c         1 MOL      0.698946
    108 O17         7.7150    3.8590   -2.7370 o         1 MOL     -0.709187
    109 O18         5.8580    4.9240   -2.9130 o         1 MOL     -0.709187
    110 H47         4.6360    2.3440   -3.0110 hn        1 MOL      0.394758
    111 H48         5.2040    2.1230    0.0240 h1        1 MOL     -0.071098
    112 H49         7.0300    3.6840   -0.1270 hc        1 MOL      0.025267
    113 H50         5.4170    4.3780   -0.5040 hc        1 MOL      0.025267
    114 N11         7.6840    1.1770   -0.4580 n         1 MOL     -0.607734
    115 C36         8.7410    0.2000   -0.4310 c3        1 MOL      0.312155
    116 C37         9.4580    0.5050    0.8680 c         1 MOL      0.183736
    117 O19         9.5910    1.6990    1.2500 o         1 MOL     -0.478453
    118 C38         9.7290    0.5620   -1.5820 c3        1 MOL     -0.013361
    119 C39        11.1000   -0.1500   -1.6060 ca        1 MOL     -0.024284
    120 C40        12.2060    0.0330   -0.7110 ca        1 MOL     -0.089488
    121 C41        11.2240   -1.2790   -2.4590 ca        1 MOL     -0.089488
    122 C42        13.4410   -0.6770   -0.8070 ca        1 MOL     -0.149983
    123 C43        12.4480   -2.0090   -2.5260 ca        1 MOL     -0.149983
    124 C44        13.6230   -1.6750   -1.8270 ca        1 MOL     -0.137600
    125 H51         7.6460    1.8280    0.3190 hn        1 MOL      0.342656
    126 H52         8.4060   -0.8330   -0.5340 h1        1 MOL      0.009501
    127 H53         9.9330    1.6320   -1.5240 hc        1 MOL      0.071033
    128 H54         9.1680    0.4170   -2.4920 hc        1 MOL      0.071033
    129 H55        12.1970    0.8260    0.0180 ha        1 MOL      0.112076
    130 H56        10.3830   -1.5830   -3.0670 ha        1 MOL      0.112076
    131 H57        14.2260   -0.3610   -0.1390 ha        1 MOL      0.105034
    132 H58        12.4900   -2.9020   -3.1440 ha        1 MOL      0.105034
    133 H59        14.4990   -2.3060   -1.8740 ha        1 MOL      0.110500
    134 N12         9.9020   -0.5470    1.6450 n         1 MOL      0.061886
    135 C45        10.2470   -1.9700    1.2510 c3        1 MOL      0.004983
    136 C46         8.9890   -2.8520    1.1440 c         1 MOL      0.406338
    137 O20         9.2060   -3.9740    0.7100 o         1 MOL     -0.560649
    138 C47        11.0870   -2.4770    2.3870 c3        1 MOL     -0.114344
    139 C48        10.6810   -1.6190    3.5680 c3        1 MOL      0.104411
    140 C49        10.4860   -0.2660    2.9390 c3        1 MOL     -0.294853
    141 H60        10.8080   -2.0790    0.3290 h1        1 MOL      0.102451
    142 H61        10.9050   -3.5370    2.5770 hc        1 MOL      0.033210
    143 H62        12.1280   -2.1700    2.2380 hc        1 MOL      0.033210
    144 H63         9.7150   -1.9760    3.9270 hc        1 MOL     -0.006279
    145 H64        11.4060   -1.5520    4.3810 hc        1 MOL     -0.006279
    146 H65         9.7700    0.3650    3.4690 h1        1 MOL      0.105225
    147 H66        11.4470    0.2280    2.9070 h1        1 MOL      0.105225
    148 N13         7.8070   -2.4570    1.5230 n         1 MOL     -0.056955
    149 C50         6.6470   -3.2720    1.7570 c3        1 MOL      0.053930
    150 C51         5.9220   -2.8280    3.0190 c         1 MOL      0.279368
    151 O21         5.8890   -1.6160    3.3810 o         1 MOL     -0.503709
    152 C52         5.7300   -3.2590    0.4780 c3        1 MOL      0.031599
    153 C53         6.0950   -4.3810   -0.5510 c3        1 MOL     -0.137215
    154 C54         5.2690   -4.3740   -1.8290 c         1 MOL      0.647509
    155 O22         5.1180   -3.2580   -2.4680 o         1 MOL     -0.705705
    156 O23         4.7320   -5.4450   -2.3080 o         1 MOL     -0.705705
    157 H67         7.6210   -1.5390    1.8930 hn        1 MOL      0.126522
    158 H68         7.0140   -4.2910    1.8820 h1        1 MOL      0.075183
    159 H69         5.7670   -2.3290   -0.0820 hc        1 MOL      0.004390
    160 H70         4.7170   -3.4330    0.8460 hc        1 MOL      0.004390
    161 H71         5.9240   -5.3540   -0.0910 hc        1 MOL      0.002591
    162 H72         7.1590   -4.3780   -0.7730 hc        1 MOL      0.002591
    163 N14         5.1980   -3.7730    3.6920 n         1 MOL     -0.264651
    164 C55         5.2170   -5.2540    3.5830 c3        1 MOL     -0.163577
    165 H73         4.5900   -5.5650    2.7460 h1        1 MOL      0.081900
    166 H74         6.2390   -5.5940    3.4170 h1        1 MOL      0.081900
    167 H75         4.8330   -5.6910    4.5050 h1        1 MOL      0.081900
    168 H76         4.6330   -3.4680    4.4620 hn        1 MOL      0.259098
    169 Ca1        -5.6730   -3.7170    1.2690 Ca        1 MOL      1.722379
    170 O24        -3.1170   -4.2060    1.3700 oh        1 MOL     -0.866501
    171 O25        -7.8450   -4.9940    2.4610 oh        1 MOL     -0.866501
    172 H77        -2.3280   -3.8500    0.9520 ho        1 MOL      0.426890
    173 H78        -8.2510   -5.8340    2.6360 ho        1 MOL      0.426890
    174 H79        -3.0650   -5.1490    1.2210 ho        1 MOL      0.426890
    175 H80        -8.5150   -4.3470    2.6590 ho        1 MOL      0.426890
    176 O26        -4.3960   -3.0310   -1.1030 oh        1 MOL     -0.866501
    177 H81        -4.2110   -3.1680   -2.0410 ho        1 MOL      0.426890
    178 H82        -4.4910   -2.0820   -1.0140 ho        1 MOL      0.426890
    179 O27        -5.0410   -2.7360    3.9600 oh        1 MOL     -0.866501
    180 H83        -4.1420   -2.4300    4.1060 ho        1 MOL      0.426890
    181 H84        -5.2790   -3.1940    4.7670 ho        1 MOL      0.426890
@<TRIPOS>BOND
     1    1    2 1   
     2    1    4 1   
     3    1    5 1   
     4    1    6 1   
     5    2    3 2   
     6    2    7 1   
     7    7    8 1   
     8    7   15 1   
     9    8    9 1   
    10    8   11 1   
    11    8   16 1   
    12    9   10 2   
    13    9   19 1   
    14   11   12 1   
    15   11   17 1   
    16   11   18 1   
    17   12   13 1   
    18   12   14 1   
    19   19   20 1   
    20   19   24 1   
    21   20   21 1   
    22   20   23 1   
    23   20   25 1   
    24   21   22 2   
    25   21   29 1   
    26   23   26 1   
    27   23   27 1   
    28   23   28 1   
    29   29   30 1   
    30   29   37 1   
    31   30   31 1   
    32   30   33 1   
    33   30   38 1   
    34   31   32 2   
    35   31   41 1   
    36   33   34 1   
    37   33   39 1   
    38   33   40 1   
    39   34   35 1   
    40   34   36 1   
    41   41   42 1   
    42   41   45 1   
    43   42   43 1   
    44   42   46 1   
    45   42   47 1   
    46   43   44 2   
    47   43   48 1   
    48   48   49 1   
    49   48   56 1   
    50   49   50 1   
    51   49   52 1   
    52   49   57 1   
    53   50   51 2   
    54   50   62 1   
    55   52   53 1   
    56   52   58 1   
    57   52   59 1   
    58   53   54 1   
    59   53   55 2   
    60   54   60 1   
    61   54   61 1   
    62   62   63 1   
    63   62   66 1   
    64   63   64 1   
    65   63   67 1   
    66   63   68 1   
    67   64   65 2   
    68   64   69 1   
    69   69   70 1   
    70   69   76 1   
    71   70   71 1   
    72   70   73 1   
    73   70   77 1   
    74   71   72 2   
    75   71   83 1   
    76   73   74 1   
    77   73   75 1   
    78   73   78 1   
    79   74   80 1   
    80   74   81 1   
    81   74   82 1   
    82   75   79 1   
    83   83   84 1   
    84   83   91 1   
    85   84   85 1   
    86   84   87 1   
    87   84   92 1   
    88   85   86 2   
    89   85  102 1   
    90   87   88 1   
    91   87   89 1   
    92   87   93 1   
    93   88   90 1   
    94   88   94 1   
    95   88   95 1   
    96   89   96 1   
    97   89   97 1   
    98   89   98 1   
    99   90   99 1   
   100   90  100 1   
   101   90  101 1   
   102  102  103 1   
   103  102  110 1   
   104  103  104 1   
   105  103  106 1   
   106  103  111 1   
   107  104  105 2   
   108  104  114 1   
   109  106  107 1   
   110  106  112 1   
   111  106  113 1   
   112  107  108 1   
   113  107  109 1   
   114  114  115 1   
   115  114  125 1   
   116  115  116 1   
   117  115  118 1   
   118  115  126 1   
   119  116  117 2   
   120  116  134 1   
   121  118  119 1   
   122  118  127 1   
   123  118  128 1   
   124  119  120 ar  
   125  119  121 ar  
   126  120  122 ar  
   127  120  129 1   
   128  121  123 ar  
   129  121  130 1   
   130  122  124 ar  
   131  122  131 1   
   132  123  124 ar  
   133  123  132 1   
   134  124  133 1   
   135  134  135 1   
   136  134  140 1   
   137  135  136 1   
   138  135  138 1   
   139  135  141 1   
   140  136  137 2   
   141  136  148 1   
   142  138  139 1   
   143  138  142 1   
   144  138  143 1   
   145  139  140 1   
   146  139  144 1   
   147  139  145 1   
   148  140  146 1   
   149  140  147 1   
   150  148  149 1   
   151  148  157 1   
   152  149  150 1   
   153  149  152 1   
   154  149  158 1   
   155  150  151 2   
   156  150  163 1   
   157  152  153 1   
   158  152  159 1   
   159  152  160 1   
   160  153  154 1   
   161  153  161 1   
   162  153  162 1   
   163  154  155 1   
   164  154  156 1   
   165  163  164 1   
   166  163  168 1   
   167  164  165 1   
   168  164  166 1   
   169  164  167 1   
   170  170  172 1   
   171  170  174 1   
   172  171  173 1   
   173  171  175 1   
   174  176  177 1   
   175  176  178 1   
   176  179  180 1   
   177  179  181 1   
@<TRIPOS>SUBSTRUCTURE
     1 MOL         1 TEMP              0 ****  ****    0 ROOT
