@<TRIPOS>MOLECULE
MOL
  188   182     1     0     0
SMALL
resp


@<TRIPOS>ATOM
      1 C1         -6.2260    1.3200    3.8460 c3        1 MOL     -0.271318
      2 C2         -6.6420    0.2120    2.9400 c         1 MOL      0.744163
      3 O1         -5.9180   -0.1020    1.9900 o         1 MOL     -0.577611
      4 H1         -5.2780    1.7330    3.5020 hc        1 MOL      0.058728
      5 H2         -6.9860    2.1020    3.8390 hc        1 MOL      0.058728
      6 H3         -6.1090    0.9360    4.8600 hc        1 MOL      0.058728
      7 N1         -7.8660   -0.2520    3.0030 n         1 MOL     -0.716554
      8 C3         -8.6390   -1.2900    2.2010 c3        1 MOL      0.429087
      9 C4         -8.6160   -0.8310    0.7270 c         1 MOL      0.368750
     10 O2         -8.5510   -1.6580   -0.1540 o         1 MOL     -0.403519
     11 C5         -8.2150   -2.7250    2.5050 c3        1 MOL     -0.290478
     12 C6         -9.2270   -3.7490    1.9230 c         1 MOL      0.638148
     13 O3         -8.9720   -4.9810    1.9950 o         1 MOL     -0.621996
     14 O4        -10.2340   -3.3390    1.3560 o         1 MOL     -0.621996
     15 H4         -8.2970    0.0110    3.8710 hn        1 MOL      0.310404
     16 H5         -9.6760   -1.2380    2.5400 h1        1 MOL     -0.021079
     17 H6         -8.0590   -2.9940    3.5530 hc        1 MOL      0.073827
     18 H7         -7.2350   -2.8510    2.0480 hc        1 MOL      0.073827
     19 N2         -8.8260    0.4630    0.4030 n         1 MOL     -0.401925
     20 C7         -8.8310    0.9050   -1.0060 c3        1 MOL     -0.071838
     21 C8         -7.4550    1.0000   -1.7890 c         1 MOL      0.532207
     22 O5         -7.4390    1.2250   -3.0130 o         1 MOL     -0.527688
     23 C9         -9.6030    2.2600   -0.9970 c3        1 MOL      0.093639
     24 C10        -8.7170    3.3740   -0.3230 c3        1 MOL      0.013115
     25 C11        -9.4490    4.7220   -0.2470 c3        1 MOL      0.046112
     26 C12        -8.3930    5.8260    0.0030 c3        1 MOL      0.045667
     27 N3         -8.9550    7.2000    0.0400 n4        1 MOL     -0.176089
     28 H8         -9.0560    1.0670    1.1790 hn        1 MOL      0.253730
     29 H9         -9.4870    0.1790   -1.4700 h1        1 MOL      0.155903
     30 H10       -10.5560    2.1530   -0.4850 hc        1 MOL     -0.007661
     31 H11        -9.7110    2.4240   -2.0660 hc        1 MOL     -0.007661
     32 H12        -7.8270    3.5080   -0.9290 hc        1 MOL     -0.004740
     33 H13        -8.5020    3.0550    0.7010 hc        1 MOL     -0.004740
     34 H14       -10.2370    4.6960    0.5010 hc        1 MOL      0.007486
     35 H15        -9.9440    4.8230   -1.2190 hc        1 MOL      0.007486
     36 H16        -7.6240    5.9170   -0.7640 hx        1 MOL      0.051400
     37 H17        -7.8760    5.6590    0.9520 hx        1 MOL      0.051400
     38 H18        -8.1530    7.8150    0.1080 hn        1 MOL      0.198336
     39 H19        -9.4940    7.4880   -0.7670 hn        1 MOL      0.198336
     40 H20        -9.5640    7.3100    0.8350 hn        1 MOL      0.198336
     41 N4         -6.3190    0.6590   -1.0870 n         1 MOL     -0.401559
     42 C13        -4.9920    0.7850   -1.6960 c3        1 MOL      0.115252
     43 C14        -4.6590   -0.3070   -2.7690 c         1 MOL      0.623902
     44 O6         -5.0260   -1.4610   -2.6010 o         1 MOL     -0.495219
     45 C15        -3.8810    0.8090   -0.6170 c3        1 MOL     -0.362693
     46 C16        -2.4920    0.9910   -1.1750 c         1 MOL      1.017541
     47 O7         -1.9490    2.1010   -1.1850 o         1 MOL     -0.837458
     48 O8         -1.9220    0.0020   -1.6390 o         1 MOL     -0.837458
     49 H21        -6.3790    0.3570   -0.1160 hn        1 MOL      0.211579
     50 H22        -5.0220    1.7340   -2.2270 h1        1 MOL     -0.014529
     51 H23        -3.9550   -0.1750   -0.1560 hc        1 MOL      0.089226
     52 H24        -4.1700    1.5290    0.1550 hc        1 MOL      0.089226
     53 N5         -3.8960    0.1580   -3.7320 n         1 MOL     -0.419721
     54 C17        -3.7160   -0.5790   -5.0260 c3        1 MOL     -0.154639
     55 C18        -2.9480   -1.9350   -4.8170 c         1 MOL      0.567339
     56 O9         -2.9390   -2.7820   -5.7370 o         1 MOL     -0.544066
     57 H25        -3.6790    1.1510   -3.7200 hn        1 MOL      0.288174
     58 H26        -3.1480    0.0650   -5.6970 h1        1 MOL      0.105105
     59 H27        -4.6860   -0.7320   -5.4890 h1        1 MOL      0.105105
     60 N6         -2.3900   -2.1380   -3.6060 n         1 MOL     -0.292523
     61 C19        -1.6940   -3.3210   -3.1160 c3        1 MOL     -0.158105
     62 C20        -2.0540   -3.6390   -1.6290 c         1 MOL      0.489260
     63 O10        -1.3300   -4.4370   -1.0550 o         1 MOL     -0.526947
     64 C21        -0.1780   -3.2040   -3.4510 c3        1 MOL     -0.161841
     65 C22         0.5710   -2.2030   -2.6200 c         1 MOL      0.368310
     66 N7          0.7070   -2.4360   -1.3640 n         1 MOL     -0.153058
     67 O11         1.0560   -1.1350   -3.0070 o         1 MOL     -0.563942
     68 H28        -2.3650   -1.3410   -2.9910 hn        1 MOL      0.245950
     69 H29        -2.1080   -4.1630   -3.6800 h1        1 MOL      0.169122
     70 H30        -0.0700   -2.9380   -4.5030 hc        1 MOL      0.105591
     71 H31         0.2780   -4.1810   -3.2910 hc        1 MOL      0.105591
     72 H32         0.5830   -3.3590   -0.9540 hn        1 MOL      0.189415
     73 H33         1.0800   -1.7220   -0.7470 hn        1 MOL      0.189415
     74 N8         -3.0340   -2.9620   -0.9280 n         1 MOL     -0.138570
     75 C23        -3.3960   -3.3860    0.4430 c3        1 MOL     -0.304550
     76 C24        -2.4970   -2.7920    1.5400 c         1 MOL      0.560149
     77 O12        -2.8690   -3.0000    2.7160 o         1 MOL     -0.527491
     78 H34        -3.5760   -2.2400   -1.3860 hn        1 MOL      0.113646
     79 H35        -3.4180   -4.4680    0.5300 h1        1 MOL      0.189140
     80 H36        -4.3790   -2.9570    0.6400 h1        1 MOL      0.189140
     81 N9         -1.4710   -1.9470    1.2570 n         1 MOL     -0.449448
     82 C25        -0.8460   -1.0170    2.2770 c3        1 MOL      0.018046
     83 C26         0.4270   -0.4740    1.5720 c         1 MOL      0.499284
     84 O13         0.2970    0.0210    0.4220 o         1 MOL     -0.753607
     85 C27        -1.7780    0.1630    2.5730 c3        1 MOL     -0.002466
     86 C28        -1.1340    1.2550    3.3730 ca        1 MOL     -0.014568
     87 C29        -0.6990    1.1050    4.7280 ca        1 MOL     -0.045027
     88 C30        -1.0790    2.5590    2.8650 ca        1 MOL     -0.045027
     89 C31        -0.1940    2.1890    5.4280 ca        1 MOL     -0.357633
     90 C32        -0.5040    3.6420    3.6010 ca        1 MOL     -0.357633
     91 C33        -0.0280    3.4980    4.9150 ca        1 MOL      0.418693
     92 O14         0.4970    4.5070    5.7100 oh        1 MOL     -0.449533
     93 H37        -1.1570   -1.8430    0.3030 hn        1 MOL      0.230776
     94 H38        -0.5150   -1.4820    3.2030 h1        1 MOL      0.074537
     95 H39        -2.6630   -0.1280    3.1390 hc        1 MOL      0.074421
     96 H40        -2.2200    0.5020    1.6330 hc        1 MOL      0.074421
     97 H41        -0.7960    0.1370    5.1840 ha        1 MOL      0.102334
     98 H42        -1.5120    2.7780    1.9060 ha        1 MOL      0.102334
     99 H43         0.1420    1.9430    6.4190 ha        1 MOL      0.156640
    100 H44        -0.3360    4.5620    3.0480 ha        1 MOL      0.156640
    101 H45         0.3940    5.3350    5.2380 ho        1 MOL      0.341553
    102 N10         1.6100   -0.4670    2.1820 n         1 MOL     -0.002916
    103 C34         2.8630    0.0510    1.6600 c3        1 MOL     -1.063541
    104 C35         3.7250   -1.0920    0.9750 c         1 MOL      0.468758
    105 O15         4.6770   -0.8200    0.2310 o         1 MOL     -0.446887
    106 C36         3.6150    0.9490    2.6850 c3        1 MOL      0.726953
    107 C37         3.6860    0.2800    4.1080 c3        1 MOL      0.164888
    108 C38         2.8140    2.2760    2.8350 c3        1 MOL     -0.629442
    109 C39         4.6630    0.9700    5.0900 c3        1 MOL     -0.431366
    110 H46         1.5840   -0.7320    3.1560 hn        1 MOL      0.175310
    111 H47         2.5880    0.7240    0.8460 h1        1 MOL      0.472327
    112 H48         4.6020    1.2710    2.3560 hc        1 MOL     -0.031016
    113 H49         4.1540   -0.6630    3.8230 hc        1 MOL     -0.039857
    114 H50         2.7210    0.0560    4.5470 hc        1 MOL     -0.039857
    115 H51         2.8870    2.8720    1.9290 hc        1 MOL      0.119845
    116 H52         1.8380    2.0050    3.2240 hc        1 MOL      0.119845
    117 H53         3.1900    2.8820    3.6580 hc        1 MOL      0.119845
    118 H54         5.6370    0.9510    4.6040 hc        1 MOL      0.115347
    119 H55         4.1750    1.9260    5.2450 hc        1 MOL      0.115347
    120 H56         4.6660    0.4670    6.0580 hc        1 MOL      0.115347
    121 N11         3.1800   -2.3230    1.0390 n         1 MOL     -0.061639
    122 C40         3.5950   -3.4560    0.2630 c3        1 MOL     -0.084512
    123 C41         5.1140   -3.8510    0.3800 c         1 MOL      0.409037
    124 O16         5.6840   -4.2750   -0.6120 o         1 MOL     -0.434827
    125 C42         2.7160   -4.5980    0.6770 c3        1 MOL      0.192815
    126 O17         1.3780   -4.2820    0.8110 oh        1 MOL     -0.536940
    127 H57         2.3720   -2.4030    1.6450 hn        1 MOL      0.129356
    128 H58         3.3310   -3.3330   -0.7940 h1        1 MOL      0.080049
    129 H59         3.0720   -4.9080    1.6550 h1        1 MOL      0.005975
    130 H60         2.8100   -5.5080    0.0800 h1        1 MOL      0.005975
    131 H61         1.1820   -5.0860    1.3090 ho        1 MOL      0.412402
    132 N12         5.7740   -3.5380    1.5390 n         1 MOL     -0.437501
    133 C43         7.2070   -3.6660    1.7950 c3        1 MOL      0.099876
    134 C44         8.2150   -2.9040    0.9320 c         1 MOL      0.465011
    135 O18         9.4450   -3.1300    0.9850 o         1 MOL     -0.536091
    136 C45         7.4960   -5.1840    1.9160 c3        1 MOL     -0.283291
    137 H62         5.2310   -3.1370    2.2890 hn        1 MOL      0.286153
    138 H63         7.2890   -3.2740    2.8040 h1        1 MOL      0.077759
    139 H64         7.2430   -5.7230    0.9990 hc        1 MOL      0.094684
    140 H65         8.5300   -5.4690    2.1290 hc        1 MOL      0.094684
    141 H66         7.0060   -5.5760    2.8030 hc        1 MOL      0.094684
    142 N13         7.6760   -2.0860   -0.0090 n         1 MOL     -0.370978
    143 C46         8.3330   -1.3190   -1.0720 c3        1 MOL      0.417501
    144 C47         8.6290    0.1490   -0.6450 c         1 MOL      0.323241
    145 O19         7.8810    0.7700    0.0640 o         1 MOL     -0.460143
    146 C48         7.3370   -1.2960   -2.2710 c3        1 MOL     -0.285930
    147 H67         6.6830   -1.9450   -0.0460 hn        1 MOL      0.150965
    148 H68         9.2280   -1.7470   -1.5130 h1        1 MOL     -0.020814
    149 H69         7.7870   -0.7220   -3.0850 hc        1 MOL      0.091225
    150 H70         7.1100   -2.3290   -2.5320 hc        1 MOL      0.091225
    151 H71         6.3660   -0.8870   -2.0050 hc        1 MOL      0.091225
    152 N14         9.6180    0.8050   -1.1690 n         1 MOL     -0.541452
    153 C49         9.9090    2.2560   -0.8730 c3        1 MOL     -0.075897
    154 C50        10.2190    2.7030    0.5400 c         1 MOL      0.385906
    155 O20        10.1510    3.8650    0.8620 o         1 MOL     -0.508409
    156 C51         8.8400    3.1950   -1.5050 c3        1 MOL      0.242601
    157 C52         8.4450    2.9080   -2.9770 c3        1 MOL     -0.093961
    158 C53         7.4100    3.9900   -3.4180 c         1 MOL      0.584066
    159 O21         7.8330    4.9760   -4.0980 o         1 MOL     -0.659480
    160 O22         6.2890    3.8620   -2.9630 o         1 MOL     -0.659480
    161 H72        10.2070    0.3560   -1.8520 hn        1 MOL      0.328220
    162 H73        10.8350    2.4190   -1.4320 h1        1 MOL      0.084231
    163 H74         9.1270    4.2470   -1.4330 hc        1 MOL     -0.004146
    164 H75         7.8820    3.0530   -1.0050 hc        1 MOL     -0.004146
    165 H76         7.9950    1.9250   -3.0890 hc        1 MOL     -0.029239
    166 H77         9.3680    2.9590   -3.5580 hc        1 MOL     -0.029239
    167 N15        10.4770    1.8080    1.4330 n         1 MOL     -0.142550
    168 C54        10.5090    2.0270    2.8610 c3        1 MOL     -0.215457
    169 H78        11.2470    2.7950    3.0930 h1        1 MOL      0.095426
    170 H79         9.5260    2.3530    3.2010 h1        1 MOL      0.095426
    171 H80        10.7790    1.0990    3.3650 h1        1 MOL      0.095426
    172 H81        10.5510    0.8730    1.0600 hn        1 MOL      0.208079
    173 Ca1         0.3660    1.3100   -1.8990 Ca        1 MOL      1.831496
    174 O23         1.1300    2.7870    0.0910 oh        1 MOL     -0.863860
    175 O24         3.1940    1.0290   -1.8270 oh        1 MOL     -0.863860
    176 H82         1.5960    3.6230    0.0470 ho        1 MOL      0.425358
    177 H83         3.6060    0.8230   -2.6700 ho        1 MOL      0.425358
    178 H84         0.8960    2.6970    1.0150 ho        1 MOL      0.425358
    179 H85         3.9110    1.3630   -1.2930 ho        1 MOL      0.425358
    180 O25         1.5780    1.5800   -4.2040 oh        1 MOL     -0.863860
    181 H86         2.4050    2.0420   -4.1350 ho        1 MOL      0.425358
    182 H87         1.1890    1.8890   -5.0180 ho        1 MOL      0.425358
    183 O26        -1.1870    1.7740   -4.2070 oh        1 MOL     -0.863860
    184 H88        -1.0740    1.2810   -5.0100 ho        1 MOL      0.425358
    185 H89        -1.4230    2.6550   -4.4930 ho        1 MOL      0.425358
    186 O27         0.3060    3.9630   -2.2530 oh        1 MOL     -0.863860
    187 H90         0.8500    4.7250   -2.0440 ho        1 MOL      0.425358
    188 H91        -0.5480    4.3240   -2.4450 ho        1 MOL      0.425358
@<TRIPOS>BOND
     1    1    2 1   
     2    1    4 1   
     3    1    5 1   
     4    1    6 1   
     5    2    3 2   
     6    2    7 1   
     7    7    8 1   
     8    7   15 1   
     9    8    9 1   
    10    8   11 1   
    11    8   16 1   
    12    9   10 2   
    13    9   19 1   
    14   11   12 1   
    15   11   17 1   
    16   11   18 1   
    17   12   13 1   
    18   12   14 1   
    19   19   20 1   
    20   19   28 1   
    21   20   21 1   
    22   20   23 1   
    23   20   29 1   
    24   21   22 2   
    25   21   41 1   
    26   23   24 1   
    27   23   30 1   
    28   23   31 1   
    29   24   25 1   
    30   24   32 1   
    31   24   33 1   
    32   25   26 1   
    33   25   34 1   
    34   25   35 1   
    35   26   27 1   
    36   26   36 1   
    37   26   37 1   
    38   27   38 1   
    39   27   39 1   
    40   27   40 1   
    41   41   42 1   
    42   41   49 1   
    43   42   43 1   
    44   42   45 1   
    45   42   50 1   
    46   43   44 2   
    47   43   53 1   
    48   45   46 1   
    49   45   51 1   
    50   45   52 1   
    51   46   47 1   
    52   46   48 1   
    53   53   54 1   
    54   53   57 1   
    55   54   55 1   
    56   54   58 1   
    57   54   59 1   
    58   55   56 2   
    59   55   60 1   
    60   60   61 1   
    61   60   68 1   
    62   61   62 1   
    63   61   64 1   
    64   61   69 1   
    65   62   63 2   
    66   62   74 1   
    67   64   65 1   
    68   64   70 1   
    69   64   71 1   
    70   65   66 1   
    71   65   67 2   
    72   66   72 1   
    73   66   73 1   
    74   74   75 1   
    75   74   78 1   
    76   75   76 1   
    77   75   79 1   
    78   75   80 1   
    79   76   77 2   
    80   76   81 1   
    81   81   82 1   
    82   81   93 1   
    83   82   83 1   
    84   82   85 1   
    85   82   94 1   
    86   83   84 2   
    87   83  102 1   
    88   85   86 1   
    89   85   95 1   
    90   85   96 1   
    91   86   87 ar  
    92   86   88 ar  
    93   87   89 ar  
    94   87   97 1   
    95   88   90 ar  
    96   88   98 1   
    97   89   91 ar  
    98   89   99 1   
    99   90   91 ar  
   100   90  100 1   
   101   91   92 1   
   102   92  101 1   
   103  102  103 1   
   104  102  110 1   
   105  103  104 1   
   106  103  106 1   
   107  103  111 1   
   108  104  105 2   
   109  104  121 1   
   110  106  107 1   
   111  106  108 1   
   112  106  112 1   
   113  107  109 1   
   114  107  113 1   
   115  107  114 1   
   116  108  115 1   
   117  108  116 1   
   118  108  117 1   
   119  109  118 1   
   120  109  119 1   
   121  109  120 1   
   122  121  122 1   
   123  121  127 1   
   124  122  123 1   
   125  122  125 1   
   126  122  128 1   
   127  123  124 2   
   128  123  132 1   
   129  125  126 1   
   130  125  129 1   
   131  125  130 1   
   132  126  131 1   
   133  132  133 1   
   134  132  137 1   
   135  133  134 1   
   136  133  136 1   
   137  133  138 1   
   138  134  135 2   
   139  134  142 1   
   140  136  139 1   
   141  136  140 1   
   142  136  141 1   
   143  142  143 1   
   144  142  147 1   
   145  143  144 1   
   146  143  146 1   
   147  143  148 1   
   148  144  145 2   
   149  144  152 1   
   150  146  149 1   
   151  146  150 1   
   152  146  151 1   
   153  152  153 1   
   154  152  161 1   
   155  153  154 1   
   156  153  156 1   
   157  153  162 1   
   158  154  155 2   
   159  154  167 1   
   160  156  157 1   
   161  156  163 1   
   162  156  164 1   
   163  157  158 1   
   164  157  165 1   
   165  157  166 1   
   166  158  159 1   
   167  158  160 1   
   168  167  168 1   
   169  167  172 1   
   170  168  169 1   
   171  168  170 1   
   172  168  171 1   
   173  174  176 1   
   174  174  178 1   
   175  175  177 1   
   176  175  179 1   
   177  180  181 1   
   178  180  182 1   
   179  183  184 1   
   180  183  185 1   
   181  186  187 1   
   182  186  188 1   
@<TRIPOS>SUBSTRUCTURE
     1 MOL         1 TEMP              0 ****  ****    0 ROOT
