@<TRIPOS>MOLECULE
MOL
  179   176     1     0     0
SMALL
resp


@<TRIPOS>ATOM
      1 C1         -0.1630    4.8380    5.5650 c3        1 MOL     -0.354675
      2 C2         -0.2120    4.1370    4.1840 c         1 MOL      0.699142
      3 O1          0.7110    4.4090    3.3780 o         1 MOL     -0.580225
      4 H1          0.8760    4.9670    5.8700 hc        1 MOL      0.099148
      5 H2         -0.6430    5.8140    5.4950 hc        1 MOL      0.099148
      6 H3         -0.6850    4.2270    6.3020 hc        1 MOL      0.099148
      7 N1         -1.2440    3.3710    3.8730 n         1 MOL     -0.592803
      8 C3         -1.5330    2.8810    2.5530 c3        1 MOL     -0.099545
      9 C4         -2.0700    4.0000    1.6380 c         1 MOL      0.861285
     10 O2         -2.9750    4.7470    2.0940 o         1 MOL     -0.597061
     11 C5         -2.6140    1.8040    2.8360 c3        1 MOL     -0.126011
     12 C6         -2.8720    1.0360    1.6090 c         1 MOL      0.856662
     13 O3         -3.5450   -0.0660    1.6960 o         1 MOL     -0.832664
     14 O4         -2.4160    1.5090    0.5350 o         1 MOL     -0.832664
     15 H4         -1.8780    3.1460    4.6280 hn        1 MOL      0.335862
     16 H5         -0.6060    2.5080    2.1060 h1        1 MOL     -0.024307
     17 H6         -3.5930    2.2270    3.0230 hc        1 MOL      0.073066
     18 H7         -2.2380    1.1650    3.6400 hc        1 MOL      0.073066
     19 N2         -1.5720    4.0820    0.3850 n         1 MOL     -0.664305
     20 C7         -2.0140    5.1560   -0.5530 c3        1 MOL      0.063777
     21 C8         -3.4140    4.9540   -1.2020 c         1 MOL      0.420549
     22 O5         -3.8290    5.7770   -2.0130 o         1 MOL     -0.527980
     23 C9         -0.9940    5.4840   -1.7030 c3        1 MOL     -0.058618
     24 C10        -0.9780    4.2560   -2.6920 c3        1 MOL     -0.031873
     25 C11         0.3020    4.2230   -3.4930 c3        1 MOL      0.103463
     26 C12         0.3050    2.8720   -4.2090 c3        1 MOL      0.063588
     27 N3          1.5020    2.7710   -5.0670 n4        1 MOL     -0.293621
     28 H8         -1.0900    3.2580    0.0690 hn        1 MOL      0.422622
     29 H9         -2.0060    6.0700    0.0430 h1        1 MOL      0.112748
     30 H10         0.0150    5.5280   -1.2940 hc        1 MOL      0.046147
     31 H11        -1.3570    6.4140   -2.1460 hc        1 MOL      0.046147
     32 H12        -1.8030    4.3170   -3.4090 hc        1 MOL      0.050518
     33 H13        -1.0250    3.3550   -2.0740 hc        1 MOL      0.050518
     34 H14         1.1680    4.2360   -2.8400 hc        1 MOL     -0.018905
     35 H15         0.4540    5.1140   -4.1060 hc        1 MOL     -0.018905
     36 H16        -0.5870    2.7140   -4.8210 hx        1 MOL      0.057642
     37 H17         0.3920    2.1170   -3.4340 hx        1 MOL      0.057642
     38 H18         1.7810    1.8260   -5.2860 hn        1 MOL      0.298542
     39 H19         1.4540    3.2860   -5.9350 hn        1 MOL      0.298542
     40 H20         2.2850    3.0490   -4.4950 hn        1 MOL      0.298542
     41 N4         -4.0920    3.8800   -0.9540 n         1 MOL     -0.285326
     42 C13        -5.4350    3.5310   -1.6490 c3        1 MOL     -0.068748
     43 C14        -6.5250    2.8470   -0.7690 c         1 MOL      0.458328
     44 O6         -7.5370    2.5010   -1.2910 o         1 MOL     -0.489503
     45 C15        -5.1290    2.6310   -2.8450 c3        1 MOL     -0.251764
     46 C16        -4.2430    1.4010   -2.4340 c         1 MOL      0.792329
     47 O7         -4.6800    0.6180   -1.5730 o         1 MOL     -0.792073
     48 O8         -3.1930    1.0830   -3.0450 o         1 MOL     -0.792073
     49 H21        -3.7060    3.2110   -0.2990 hn        1 MOL      0.156949
     50 H22        -5.8560    4.4410   -2.0930 h1        1 MOL      0.151802
     51 H23        -4.5150    3.1740   -3.5680 hc        1 MOL      0.095735
     52 H24        -6.0780    2.2740   -3.2390 hc        1 MOL      0.095735
     53 N5         -6.1960    2.5760    0.4980 n         1 MOL     -0.220812
     54 C17        -7.0170    1.9390    1.5440 c3        1 MOL     -0.126598
     55 C18        -7.5520    0.5160    1.2140 c         1 MOL      0.528023
     56 O9         -8.6020    0.1130    1.7610 o         1 MOL     -0.550583
     57 H25        -5.2510    2.7930    0.8040 hn        1 MOL      0.181956
     58 H26        -7.8400    2.6420    1.6620 h1        1 MOL      0.099747
     59 H27        -6.4910    1.9580    2.5020 h1        1 MOL      0.099747
     60 N6         -6.7310   -0.2490    0.5140 n         1 MOL     -0.316549
     61 C19        -7.1900   -1.5790    0.0920 c3        1 MOL      0.063940
     62 C20        -6.0540   -2.5850   -0.1760 c         1 MOL      0.304453
     63 O10        -4.8770   -2.1810   -0.2930 o         1 MOL     -0.275441
     64 C21        -8.0560   -1.4560   -1.1680 c3        1 MOL     -0.216626
     65 C22        -7.4140   -1.9740   -2.4440 c         1 MOL      0.551555
     66 N7         -6.7790   -1.0610   -3.1910 n         1 MOL     -0.619228
     67 O11        -7.6700   -3.0310   -2.8860 o         1 MOL     -0.544874
     68 H28        -5.9440    0.1180   -0.0140 hn        1 MOL      0.242207
     69 H29        -7.8340   -2.0470    0.8320 h1        1 MOL      0.084670
     70 H30        -8.4450   -0.4490   -1.2830 hc        1 MOL      0.103366
     71 H31        -9.0070   -1.9640   -1.0540 hc        1 MOL      0.103366
     72 H32        -6.7840   -0.0770   -2.9560 hn        1 MOL      0.304947
     73 H33        -6.4430   -1.3100   -4.1050 hn        1 MOL      0.304947
     74 N8         -6.4170   -3.8990   -0.3590 n         1 MOL     -0.386981
     75 C23        -5.4660   -4.9530   -0.8150 c3        1 MOL      0.067513
     76 C24        -4.3210   -5.0610    0.1410 c         1 MOL      0.489274
     77 O12        -4.5140   -4.9450    1.3400 o         1 MOL     -0.484514
     78 H34        -7.4010   -4.1010   -0.2510 hn        1 MOL      0.299541
     79 H35        -5.1030   -4.6600   -1.8100 h1        1 MOL      0.041488
     80 H36        -5.9410   -5.9210   -0.9650 h1        1 MOL      0.041488
     81 N9         -3.1190   -5.1870   -0.3660 n         1 MOL     -0.426228
     82 C25        -1.8870   -5.2910    0.5260 c3        1 MOL     -0.044264
     83 C26        -1.6140   -3.8600    1.1890 c         1 MOL      0.419063
     84 O13        -2.1890   -2.8600    0.8150 o         1 MOL     -0.563834
     85 C27        -0.6660   -5.6910   -0.3610 c3        1 MOL     -0.244216
     86 C28        -0.0350   -4.5750   -1.2080 ca        1 MOL      0.034644
     87 C29        -0.4840   -4.3080   -2.5080 ca        1 MOL     -0.125001
     88 C30         1.0860   -3.9060   -0.7140 ca        1 MOL     -0.125001
     89 C31         0.1340   -3.2460   -3.2580 ca        1 MOL     -0.278644
     90 C32         1.6680   -2.8760   -1.4150 ca        1 MOL     -0.278644
     91 C33         1.2560   -2.5860   -2.7110 ca        1 MOL      0.431426
     92 O14         1.8500   -1.5620   -3.4510 oh        1 MOL     -0.631394
     93 H37        -2.9660   -5.4140   -1.3330 hn        1 MOL      0.270044
     94 H38        -2.1290   -6.0150    1.3030 h1        1 MOL      0.118614
     95 H39        -0.9800   -6.3840   -1.1430 hc        1 MOL      0.115423
     96 H40         0.0830   -6.2300    0.2120 hc        1 MOL      0.115423
     97 H41        -1.2760   -4.8930   -2.9510 ha        1 MOL      0.113980
     98 H42         1.4180   -4.1440    0.2800 ha        1 MOL      0.113980
     99 H43        -0.0770   -3.0640   -4.2980 ha        1 MOL      0.159868
    100 H44         2.5140   -2.3520   -0.9800 ha        1 MOL      0.159868
    101 H45         2.5510   -1.0840   -3.0070 ho        1 MOL      0.442472
    102 N10        -0.6900   -3.8080    2.1120 n         1 MOL     -0.161582
    103 C34        -0.1280   -2.5850    2.7640 c3        1 MOL      0.007221
    104 C35         0.2840   -1.3830    1.8880 c         1 MOL      0.078638
    105 O15        -0.4710   -0.8600    1.0340 o         1 MOL     -0.355495
    106 C36        -1.1400   -2.1350    3.8690 c3        1 MOL      0.035878
    107 C37        -0.7370   -0.9330    4.7820 c3        1 MOL      0.239584
    108 C38        -1.5450   -3.2290    4.8310 c3        1 MOL     -0.070039
    109 C39        -1.5020   -0.4190    5.9710 c3        1 MOL     -0.151479
    110 H46        -0.2110   -4.6670    2.3570 hn        1 MOL      0.226620
    111 H47         0.6770   -2.9750    3.3700 h1        1 MOL      0.070480
    112 H48        -2.0960   -1.8750    3.4210 hc        1 MOL      0.128014
    113 H49        -0.6920   -0.0740    4.1070 hc        1 MOL     -0.088749
    114 H50         0.3220   -0.9320    5.0130 hc        1 MOL     -0.088749
    115 H51        -1.6730   -4.2010    4.3570 hc        1 MOL      0.007494
    116 H52        -0.7340   -3.4880    5.5150 hc        1 MOL      0.007494
    117 H53        -2.4650   -2.9880    5.3860 hc        1 MOL      0.007494
    118 H54        -2.5440   -0.3790    5.6530 hc        1 MOL      0.031420
    119 H55        -1.3410   -1.1040    6.7990 hc        1 MOL      0.031420
    120 H56        -1.0910    0.5700    6.1960 hc        1 MOL      0.031420
    121 N11         1.4910   -0.8490    2.1560 n         1 MOL     -0.175853
    122 C40         1.8970    0.5200    1.9330 c3        1 MOL     -0.077085
    123 C41         3.2130    0.5940    1.1330 c         1 MOL      0.490391
    124 O16         3.5950    1.7160    0.8050 o         1 MOL     -0.538177
    125 C42         2.0220    1.2320    3.3530 c3        1 MOL      0.367289
    126 O17         2.7600    0.3310    4.1460 oh        1 MOL     -0.634421
    127 H57         2.0080   -1.1650    2.9640 hn        1 MOL      0.200500
    128 H58         1.1450    1.0590    1.3700 h1        1 MOL      0.102712
    129 H59         1.0640    1.3750    3.8530 h1        1 MOL      0.008819
    130 H60         2.5420    2.1830    3.2300 h1        1 MOL      0.008819
    131 H61         2.5160    0.5020    5.0540 ho        1 MOL      0.413849
    132 N12         3.8620   -0.4920    0.7790 n         1 MOL     -0.251399
    133 C43         5.0370   -0.4510   -0.0430 c3        1 MOL      0.009573
    134 C44         4.8440    0.1170   -1.5330 c         1 MOL      0.702637
    135 O18         3.7720   -0.1060   -2.1090 o         1 MOL     -0.664807
    136 C45         5.6380   -1.8580   -0.1970 c3        1 MOL     -0.441701
    137 H62         3.3580   -1.3560    0.8520 hn        1 MOL      0.197491
    138 H63         5.8350    0.0800    0.4730 h1        1 MOL      0.099247
    139 H64         6.3700   -1.8480   -1.0100 hc        1 MOL      0.138924
    140 H65         6.0640   -2.0900    0.7780 hc        1 MOL      0.138924
    141 H66         4.9640   -2.6510   -0.4990 hc        1 MOL      0.138924
    142 N13         5.8140    0.7760   -2.1710 n         1 MOL     -0.651655
    143 C46         7.1290    1.2830   -1.6640 c3        1 MOL      0.349244
    144 C47         8.3170    0.2120   -1.9720 c         1 MOL      0.464818
    145 O19         8.3420   -0.4550   -3.0030 o         1 MOL     -0.528796
    146 C48         7.3680    2.6080   -2.2600 c3        1 MOL     -0.314159
    147 H67         5.5130    1.0600   -3.0960 hn        1 MOL      0.328898
    148 H68         6.9560    1.5430   -0.6150 h1        1 MOL      0.031615
    149 H69         7.4300    2.6520   -3.3430 hc        1 MOL      0.086238
    150 H70         6.5030    3.2080   -1.9630 hc        1 MOL      0.086238
    151 H71         8.2890    2.9720   -1.8110 hc        1 MOL      0.086238
    152 N14         9.3560    0.0160   -1.1150 n         1 MOL     -0.249219
    153 C49         9.5880    0.5660    0.2860 c3        1 MOL     -0.444297
    154 C50         9.5620   -0.4010    1.5020 c         1 MOL      0.605275
    155 O20         9.2170   -0.0290    2.6270 o         1 MOL     -0.557015
    156 C51        10.9570    1.2890    0.3410 c3        1 MOL      0.107308
    157 C52        12.1750    0.3410    0.1930 c3        1 MOL     -0.180847
    158 C53        12.2110   -0.4400   -1.1750 c         1 MOL      0.685183
    159 O21        12.8620    0.0670   -2.1010 o         1 MOL     -0.648715
    160 O22        11.7610   -1.6320   -1.3040 o         1 MOL     -0.648715
    161 H72        10.0580   -0.6440   -1.4230 hn        1 MOL      0.226800
    162 H73         8.8100    1.3040    0.5200 h1        1 MOL      0.130843
    163 H74        10.9860    1.8360    1.2850 hc        1 MOL      0.016894
    164 H75        11.0680    1.9190   -0.5330 hc        1 MOL      0.016894
    165 H76        12.1800   -0.3190    1.0530 hc        1 MOL      0.032636
    166 H77        13.0860    0.9280    0.2850 hc        1 MOL      0.032636
    167 N15         9.8940   -1.6420    1.2020 n         1 MOL     -0.221143
    168 C54         9.8590   -2.7420    2.2220 c3        1 MOL     -0.210985
    169 H78        10.7580   -2.6960    2.8370 h1        1 MOL      0.098631
    170 H79         8.9800   -2.6220    2.8550 h1        1 MOL      0.098631
    171 H80         9.8140   -3.7070    1.7160 h1        1 MOL      0.098631
    172 H81        10.1690   -1.7690    0.2340 hn        1 MOL      0.171325
    173 Ca1        -2.6010   -0.7510   -0.7560 Ca        1 MOL      1.816182
    174 O23        -3.2510   -2.4230   -2.7800 oh        1 MOL     -0.909170
    175 H82        -4.1030   -2.1770   -3.1280 ho        1 MOL      0.432159
    176 H83        -3.1130   -3.3170   -3.0870 ho        1 MOL      0.432159
    177 O24        -0.3280    0.0430   -1.7880 oh        1 MOL     -0.909170
    178 H84         0.3690    0.6710   -1.5770 ho        1 MOL      0.432159
    179 H85        -0.1460   -0.2320   -2.6850 ho        1 MOL      0.432159
@<TRIPOS>BOND
     1    1    2 1   
     2    1    4 1   
     3    1    5 1   
     4    1    6 1   
     5    2    3 2   
     6    2    7 1   
     7    7    8 1   
     8    7   15 1   
     9    8    9 1   
    10    8   11 1   
    11    8   16 1   
    12    9   10 2   
    13    9   19 1   
    14   11   12 1   
    15   11   17 1   
    16   11   18 1   
    17   12   13 1   
    18   12   14 1   
    19   19   20 1   
    20   19   28 1   
    21   20   21 1   
    22   20   23 1   
    23   20   29 1   
    24   21   22 2   
    25   21   41 1   
    26   23   24 1   
    27   23   30 1   
    28   23   31 1   
    29   24   25 1   
    30   24   32 1   
    31   24   33 1   
    32   25   26 1   
    33   25   34 1   
    34   25   35 1   
    35   26   27 1   
    36   26   36 1   
    37   26   37 1   
    38   27   38 1   
    39   27   39 1   
    40   27   40 1   
    41   41   42 1   
    42   41   49 1   
    43   42   43 1   
    44   42   45 1   
    45   42   50 1   
    46   43   44 2   
    47   43   53 1   
    48   45   46 1   
    49   45   51 1   
    50   45   52 1   
    51   46   47 1   
    52   46   48 1   
    53   53   54 1   
    54   53   57 1   
    55   54   55 1   
    56   54   58 1   
    57   54   59 1   
    58   55   56 2   
    59   55   60 1   
    60   60   61 1   
    61   60   68 1   
    62   61   62 1   
    63   61   64 1   
    64   61   69 1   
    65   62   63 2   
    66   62   74 1   
    67   64   65 1   
    68   64   70 1   
    69   64   71 1   
    70   65   66 1   
    71   65   67 2   
    72   66   72 1   
    73   66   73 1   
    74   74   75 1   
    75   74   78 1   
    76   75   76 1   
    77   75   79 1   
    78   75   80 1   
    79   76   77 2   
    80   76   81 1   
    81   81   82 1   
    82   81   93 1   
    83   82   83 1   
    84   82   85 1   
    85   82   94 1   
    86   83   84 2   
    87   83  102 1   
    88   85   86 1   
    89   85   95 1   
    90   85   96 1   
    91   86   87 ar  
    92   86   88 ar  
    93   87   89 ar  
    94   87   97 1   
    95   88   90 ar  
    96   88   98 1   
    97   89   91 ar  
    98   89   99 1   
    99   90   91 ar  
   100   90  100 1   
   101   91   92 1   
   102   92  101 1   
   103  102  103 1   
   104  102  110 1   
   105  103  104 1   
   106  103  106 1   
   107  103  111 1   
   108  104  105 2   
   109  104  121 1   
   110  106  107 1   
   111  106  108 1   
   112  106  112 1   
   113  107  109 1   
   114  107  113 1   
   115  107  114 1   
   116  108  115 1   
   117  108  116 1   
   118  108  117 1   
   119  109  118 1   
   120  109  119 1   
   121  109  120 1   
   122  121  122 1   
   123  121  127 1   
   124  122  123 1   
   125  122  125 1   
   126  122  128 1   
   127  123  124 2   
   128  123  132 1   
   129  125  126 1   
   130  125  129 1   
   131  125  130 1   
   132  126  131 1   
   133  132  133 1   
   134  132  137 1   
   135  133  134 1   
   136  133  136 1   
   137  133  138 1   
   138  134  135 2   
   139  134  142 1   
   140  136  139 1   
   141  136  140 1   
   142  136  141 1   
   143  142  143 1   
   144  142  147 1   
   145  143  144 1   
   146  143  146 1   
   147  143  148 1   
   148  144  145 2   
   149  144  152 1   
   150  146  149 1   
   151  146  150 1   
   152  146  151 1   
   153  152  153 1   
   154  152  161 1   
   155  153  154 1   
   156  153  156 1   
   157  153  162 1   
   158  154  155 2   
   159  154  167 1   
   160  156  157 1   
   161  156  163 1   
   162  156  164 1   
   163  157  158 1   
   164  157  165 1   
   165  157  166 1   
   166  158  159 1   
   167  158  160 1   
   168  167  168 1   
   169  167  172 1   
   170  168  169 1   
   171  168  170 1   
   172  168  171 1   
   173  174  175 1   
   174  174  176 1   
   175  177  178 1   
   176  177  179 1   
@<TRIPOS>SUBSTRUCTURE
     1 MOL         1 TEMP              0 ****  ****    0 ROOT
