@<TRIPOS>MOLECULE
MOL
  192   187     1     0     0
SMALL
resp


@<TRIPOS>ATOM
      1 C1          9.3090    1.9250    0.0740 c3        1 MOL     -0.451313
      2 C2          8.0950    1.2310   -0.4040 c         1 MOL      0.783937
      3 O1          7.0730    1.2640    0.1840 o         1 MOL     -0.675666
      4 H1          9.2900    2.9620   -0.2610 hc        1 MOL      0.112818
      5 H2          9.3390    1.8960    1.1630 hc        1 MOL      0.112818
      6 H3         10.1930    1.4290   -0.3270 hc        1 MOL      0.112818
      7 N1          8.2740    0.5080   -1.5460 n         1 MOL     -0.453766
      8 C3          7.2690   -0.2160   -2.3360 c3        1 MOL     -0.109132
      9 C4          6.8310   -1.5270   -1.7340 c         1 MOL      0.678803
     10 O2          6.3580   -2.3720   -2.5000 o         1 MOL     -0.506941
     11 C5          7.8790   -0.5540   -3.7660 c3        1 MOL     -0.020892
     12 C6          9.3240   -1.1460   -3.7860 c         1 MOL      0.661692
     13 O3         10.3230   -0.4320   -3.5800 o         1 MOL     -0.635096
     14 O4          9.3710   -2.3670   -3.9810 o         1 MOL     -0.635096
     15 H4          9.2140    0.5810   -1.9160 hn        1 MOL      0.195390
     16 H5          6.3410    0.3290   -2.4920 h1        1 MOL      0.121820
     17 H6          7.8540    0.2920   -4.4430 hc        1 MOL      0.015597
     18 H7          7.2530   -1.2430   -4.3360 hc        1 MOL      0.015597
     19 N2          6.9650   -1.7800   -0.4240 n         1 MOL     -0.481337
     20 C7          6.5810   -3.0210    0.2370 c3        1 MOL     -0.047288
     21 C8          5.0800   -3.4230    0.2110 c         1 MOL      0.535333
     22 O5          4.7560   -4.5820    0.1100 o         1 MOL     -0.565669
     23 C9          7.1160   -3.0570    1.6470 c3        1 MOL      0.280897
     24 C10         7.5030   -4.4680    2.2120 c3        1 MOL     -0.306162
     25 C11         8.3560   -4.4390    3.4900 c3        1 MOL      0.227826
     26 C12         8.5380   -5.8410    4.0550 c3        1 MOL      0.057316
     27 N3          9.1960   -5.8380    5.3860 n4        1 MOL     -0.317778
     28 H8          7.1060   -1.0720    0.2770 hn        1 MOL      0.233999
     29 H9          7.1600   -3.8020   -0.2560 h1        1 MOL      0.116464
     30 H10         6.4010   -2.5960    2.3330 hc        1 MOL     -0.041664
     31 H11         7.9600   -2.3620    1.7070 hc        1 MOL     -0.041664
     32 H12         8.0770   -5.0410    1.4930 hc        1 MOL      0.074375
     33 H13         6.5700   -4.9530    2.5070 hc        1 MOL      0.074375
     34 H14         7.7470   -3.8520    4.1870 hc        1 MOL     -0.038668
     35 H15         9.2830   -3.8940    3.3500 hc        1 MOL     -0.038668
     36 H16         9.2120   -6.3470    3.3600 hx        1 MOL      0.066993
     37 H17         7.6060   -6.3990    4.0950 hx        1 MOL      0.066993
     38 H18         9.6630   -6.7380    5.4170 hn        1 MOL      0.257780
     39 H19         9.8870   -5.1160    5.5220 hn        1 MOL      0.257780
     40 H20         8.4850   -5.6970    6.0910 hn        1 MOL      0.257780
     41 N4          4.0520   -2.5730    0.2870 n         1 MOL     -0.582919
     42 C13         3.9680   -1.2550    0.9080 c3        1 MOL      0.479900
     43 C14         3.8650   -0.0860   -0.0720 c         1 MOL      0.404526
     44 O6          3.7550   -0.2440   -1.3020 o         1 MOL     -0.578545
     45 C15         2.8440   -1.2420    1.9600 c3        1 MOL     -0.427166
     46 C16         1.5100   -1.4570    1.2120 c         1 MOL      0.742177
     47 O7          1.0630   -0.3940    0.6480 o         1 MOL     -0.698465
     48 O8          1.0920   -2.5740    0.8550 o         1 MOL     -0.698465
     49 H21         3.2240   -3.0170   -0.0940 hn        1 MOL      0.413820
     50 H22         4.8900   -1.0250    1.4500 h1        1 MOL     -0.048266
     51 H23         2.9130   -0.3150    2.5190 hc        1 MOL      0.064634
     52 H24         3.0920   -2.1200    2.5660 hc        1 MOL      0.064634
     53 N5          3.9740    1.1810    0.3680 n         1 MOL     -0.163134
     54 C17         3.9500    2.4020   -0.4700 c3        1 MOL     -0.050368
     55 C18         2.5840    2.8730   -1.0240 c         1 MOL      0.491502
     56 O9          1.5690    2.2660   -0.6880 o         1 MOL     -0.364381
     57 H25         4.0990    1.3120    1.3640 hn        1 MOL      0.192886
     58 H26         4.7200    2.3560   -1.2390 h1        1 MOL      0.064179
     59 H27         4.1550    3.2350    0.2160 h1        1 MOL      0.064179
     60 N6          2.6100    3.9460   -1.8600 n         1 MOL     -0.590584
     61 C19         1.4390    4.5110   -2.5670 c3        1 MOL      0.476788
     62 C20         1.5480    6.0640   -2.8570 c         1 MOL      0.354452
     63 O10         2.6030    6.5580   -3.2870 o         1 MOL     -0.505421
     64 C21         1.2840    3.8940   -3.9290 c3        1 MOL     -0.374965
     65 C22         0.5940    2.5150   -3.9230 c         1 MOL      0.715030
     66 O11        -0.2540    2.2410   -3.0260 o         1 MOL     -0.672131
     67 O12         0.9320    1.6100   -4.7150 o         1 MOL     -0.672131
     68 H28         3.5250    4.2790   -2.1030 hn        1 MOL      0.307229
     69 H29         0.5310    4.1950   -2.0620 h1        1 MOL     -0.132181
     70 H30         2.2540    3.9190   -4.4220 hc        1 MOL      0.100561
     71 H31         0.6630    4.6160   -4.4670 hc        1 MOL      0.100561
     72 N7          0.4590    6.8860   -2.8060 n         1 MOL     -0.436100
     73 C23        -0.9070    6.4420   -2.4650 c3        1 MOL      0.029229
     74 C24        -1.1330    6.3310   -0.9200 c         1 MOL      0.628951
     75 O13        -0.2460    6.6840   -0.1080 o         1 MOL     -0.534223
     76 H32         0.7030    7.8690   -2.8730 hn        1 MOL      0.312647
     77 H33        -1.0170    5.5120   -3.0190 h1        1 MOL      0.048326
     78 H34        -1.6580    7.1500   -2.8060 h1        1 MOL      0.048326
     79 N8         -2.3130    5.7930   -0.5410 n         1 MOL     -0.608639
     80 C25        -2.4730    5.3220    0.8490 c3        1 MOL      0.018186
     81 C26        -1.5630    4.1660    1.1450 c         1 MOL      0.835525
     82 O14        -1.2060    3.4150    0.2180 o         1 MOL     -0.672046
     83 C27        -3.9340    5.1530    1.2500 c3        1 MOL      0.499158
     84 C28        -4.6410    4.0850    0.4790 c3        1 MOL     -0.432851
     85 O15        -4.7480    6.2580    1.0160 oh        1 MOL     -0.597421
     86 H35        -2.8980    5.3780   -1.2570 hn        1 MOL      0.321381
     87 H36        -2.1540    6.1400    1.4900 h1        1 MOL      0.021970
     88 H37        -3.9300    4.9910    2.3280 h1        1 MOL     -0.068328
     89 H38        -4.8110    6.6010    1.9110 ho        1 MOL      0.364211
     90 H39        -4.2620    3.0940    0.7240 hc        1 MOL      0.120431
     91 H40        -5.6400    4.1420    0.9170 hc        1 MOL      0.120431
     92 H41        -4.7390    4.2970   -0.5860 hc        1 MOL      0.120431
     93 N9         -1.2460    4.0020    2.4150 n         1 MOL     -0.793636
     94 C29        -0.6130    2.8510    3.0710 c3        1 MOL      0.096938
     95 C30        -1.2710    1.5220    2.7930 c         1 MOL      0.659519
     96 O16        -1.4240    1.0970    1.6470 o         1 MOL     -0.536828
     97 C31         0.9180    2.7650    2.8170 c3        1 MOL      0.511781
     98 C32         1.7420    4.0030    2.4590 c3        1 MOL     -0.040420
     99 C33         1.6060    2.0930    4.0730 c3        1 MOL     -0.452660
    100 C34         1.6260    5.1590    3.4480 c3        1 MOL     -0.253388
    101 H42        -1.2670    4.8120    3.0140 hn        1 MOL      0.348893
    102 H43        -0.6760    3.0290    4.1400 h1        1 MOL      0.027786
    103 H44         1.0970    2.1000    1.9720 hc        1 MOL     -0.292693
    104 H45         1.5690    4.3910    1.4610 hc        1 MOL      0.055266
    105 H46         2.7550    3.6280    2.4200 hc        1 MOL      0.055266
    106 H47         1.5470    2.7570    4.9300 hc        1 MOL      0.094983
    107 H48         1.1520    1.1480    4.3870 hc        1 MOL      0.094983
    108 H49         2.6480    1.8300    3.8960 hc        1 MOL      0.094983
    109 H50         1.5500    4.9280    4.5100 hc        1 MOL      0.055209
    110 H51         2.4450    5.8260    3.1960 hc        1 MOL      0.055209
    111 H52         0.6510    5.6000    3.2180 hc        1 MOL      0.055209
    112 N10        -1.7140    0.7810    3.8220 n         1 MOL     -0.529308
    113 C35        -2.1040   -0.6010    3.6060 c3        1 MOL     -0.009600
    114 C36        -3.4920   -0.8740    2.9490 c         1 MOL      0.498940
    115 O17        -3.8760   -2.0080    2.7320 o         1 MOL     -0.522262
    116 C37        -1.9890   -1.4260    4.9410 c3        1 MOL      0.357344
    117 C38        -3.0100   -1.0340    6.0420 c3        1 MOL     -0.566256
    118 O18        -0.7540   -1.1810    5.5490 oh        1 MOL     -0.565076
    119 H53        -1.6290    1.1590    4.7550 hn        1 MOL      0.276746
    120 H54        -1.3800   -1.0450    2.9250 h1        1 MOL      0.069307
    121 H55        -1.9990   -2.4840    4.6790 h1        1 MOL      0.026532
    122 H56        -0.2660   -1.9670    5.2670 ho        1 MOL      0.383858
    123 H57        -4.0690   -1.0850    5.7800 hc        1 MOL      0.151814
    124 H58        -2.8280   -1.5930    6.9600 hc        1 MOL      0.151814
    125 H59        -2.8260   -0.0700    6.5090 hc        1 MOL      0.151814
    126 N11        -4.3600    0.1640    2.8270 n         1 MOL     -0.257073
    127 C39        -5.7910    0.1070    2.4680 c3        1 MOL     -0.069739
    128 C40        -6.0640   -0.4870    1.0970 c         1 MOL      0.468650
    129 O19        -5.6150    0.0150    0.0550 o         1 MOL     -0.466027
    130 C41        -6.4450    1.5050    2.5200 c3        1 MOL      0.393825
    131 C42        -8.0000    1.5930    2.7750 c3        1 MOL     -0.389180
    132 O20        -5.7290    2.3790    3.2840 oh        1 MOL     -0.554542
    133 H60        -4.0700    1.0770    3.1560 hn        1 MOL      0.173267
    134 H61        -6.2770   -0.5420    3.1800 h1        1 MOL      0.042916
    135 H62        -6.4200    1.8840    1.4990 h1        1 MOL      0.013990
    136 H63        -5.8770    2.0330    4.1660 ho        1 MOL      0.356522
    137 H64        -8.6490    1.2160    1.9860 hc        1 MOL      0.097028
    138 H65        -8.1830    0.8840    3.5830 hc        1 MOL      0.097028
    139 H66        -8.2570    2.6160    3.0630 hc        1 MOL      0.097028
    140 N12        -6.7670   -1.6020    1.1600 n         1 MOL     -0.533303
    141 C43        -6.9080   -2.5980    0.0180 c3        1 MOL      0.370190
    142 C44        -5.7010   -2.5370   -0.8550 c         1 MOL      0.269088
    143 O21        -5.7750   -2.2080   -2.0260 o         1 MOL     -0.473874
    144 C45        -8.3350   -2.4090   -0.5910 c3        1 MOL     -0.609003
    145 C46        -8.6720   -3.1810   -1.8560 c3        1 MOL      0.239653
    146 C47       -10.0580   -2.9530   -2.4340 c3        1 MOL      0.346307
    147 C48       -10.2500   -3.8010   -3.6100 c3        1 MOL     -0.062587
    148 N13       -11.7060   -4.1200   -3.9330 n4        1 MOL     -0.235825
    149 H67        -7.2680   -1.7630    2.0170 hn        1 MOL      0.305354
    150 H68        -6.7950   -3.5780    0.4760 h1        1 MOL      0.000750
    151 H69        -8.3770   -1.3370   -0.8300 hc        1 MOL      0.166291
    152 H70        -9.0140   -2.6340    0.2250 hc        1 MOL      0.166291
    153 H71        -8.5750   -4.2130   -1.5060 hc        1 MOL     -0.036126
    154 H72        -7.9140   -3.0180   -2.6170 hc        1 MOL     -0.036126
    155 H73       -10.2990   -1.8890   -2.5230 hc        1 MOL     -0.087522
    156 H74       -10.7410   -3.3660   -1.6950 hc        1 MOL     -0.087522
    157 H75        -9.7930   -4.7390   -3.2980 hx        1 MOL      0.080625
    158 H76        -9.7460   -3.2840   -4.4270 hx        1 MOL      0.080625
    159 H77       -12.2440   -3.3180   -4.2370 hn        1 MOL      0.233381
    160 H78       -11.7420   -4.7060   -4.7530 hn        1 MOL      0.233381
    161 H79       -12.1750   -4.6770   -3.2370 hn        1 MOL      0.233381
    162 N14        -4.5840   -2.9510   -0.3330 n         1 MOL     -0.159828
    163 C49        -3.2910   -3.1040   -1.1020 c3        1 MOL      0.141017
    164 C50        -2.0510   -2.7680   -0.2670 c         1 MOL      0.400763
    165 O22        -1.5830   -1.6560   -0.4610 o         1 MOL     -0.600826
    166 C51        -3.3100   -4.5050   -1.7280 c3        1 MOL     -0.057816
    167 C52        -4.0060   -4.7130   -3.0630 c3        1 MOL     -0.340889
    168 C53        -3.9380   -6.1940   -3.4510 c         1 MOL      0.688903
    169 O23        -2.9960   -6.5330   -4.2110 o         1 MOL     -0.646297
    170 O24        -4.7070   -7.0650   -2.9560 o         1 MOL     -0.646297
    171 H80        -4.6780   -3.1340    0.6520 hn        1 MOL      0.190900
    172 H81        -3.2900   -2.4300   -1.9590 h1        1 MOL      0.046416
    173 H82        -3.7130   -5.2420   -1.0380 hc        1 MOL      0.070101
    174 H83        -2.2930   -4.8400   -1.9000 hc        1 MOL      0.070101
    175 H84        -3.4610   -4.1730   -3.8400 hc        1 MOL      0.085697
    176 H85        -5.0570   -4.4200   -3.0370 hc        1 MOL      0.085697
    177 N15        -1.4890   -3.5280    0.6730 n         1 MOL     -0.205541
    178 C54        -1.8430   -4.8320    1.1780 c3        1 MOL     -0.100323
    179 H86        -2.6090   -4.7270    1.9470 h1        1 MOL      0.045059
    180 H87        -2.2270   -5.4450    0.3630 h1        1 MOL      0.045059
    181 H88        -0.9610   -5.3070    1.6070 h1        1 MOL      0.045059
    182 H89        -0.6790   -3.1340    1.1280 hn        1 MOL      0.299242
    183 Ca1        -0.5790    0.7750   -0.8650 Ca        1 MOL      1.750189
    184 O25        -2.1170   -0.2030   -3.4280 oh        1 MOL     -0.828406
    185 O26        -3.1910    1.0920   -1.0000 oh        1 MOL     -0.828406
    186 H90        -1.6460   -1.0160   -3.6330 ho        1 MOL      0.404952
    187 H91        -3.9700    0.5460   -0.8590 ho        1 MOL      0.404952
    188 H92        -2.9660   -0.2940   -3.8630 ho        1 MOL      0.404952
    189 H93        -3.5270    1.9070   -1.3670 ho        1 MOL      0.404952
    190 O27         1.3110   -0.1990   -2.4040 oh        1 MOL     -0.828406
    191 H94         2.2110   -0.3970   -2.1640 ho        1 MOL      0.404952
    192 H95         1.3870    0.4460   -3.1190 ho        1 MOL      0.404952
@<TRIPOS>BOND
     1    1    2 1   
     2    1    4 1   
     3    1    5 1   
     4    1    6 1   
     5    2    3 2   
     6    2    7 1   
     7    7    8 1   
     8    7   15 1   
     9    8    9 1   
    10    8   11 1   
    11    8   16 1   
    12    9   10 2   
    13    9   19 1   
    14   11   12 1   
    15   11   17 1   
    16   11   18 1   
    17   12   13 1   
    18   12   14 1   
    19   19   20 1   
    20   19   28 1   
    21   20   21 1   
    22   20   23 1   
    23   20   29 1   
    24   21   22 2   
    25   21   41 1   
    26   23   24 1   
    27   23   30 1   
    28   23   31 1   
    29   24   25 1   
    30   24   32 1   
    31   24   33 1   
    32   25   26 1   
    33   25   34 1   
    34   25   35 1   
    35   26   27 1   
    36   26   36 1   
    37   26   37 1   
    38   27   38 1   
    39   27   39 1   
    40   27   40 1   
    41   41   42 1   
    42   41   49 1   
    43   42   43 1   
    44   42   45 1   
    45   42   50 1   
    46   43   44 2   
    47   43   53 1   
    48   45   46 1   
    49   45   51 1   
    50   45   52 1   
    51   46   47 1   
    52   46   48 1   
    53   53   54 1   
    54   53   57 1   
    55   54   55 1   
    56   54   58 1   
    57   54   59 1   
    58   55   56 2   
    59   55   60 1   
    60   60   61 1   
    61   60   68 1   
    62   61   62 1   
    63   61   64 1   
    64   61   69 1   
    65   62   63 2   
    66   62   72 1   
    67   64   65 1   
    68   64   70 1   
    69   64   71 1   
    70   65   66 1   
    71   65   67 1   
    72   72   73 1   
    73   72   76 1   
    74   73   74 1   
    75   73   77 1   
    76   73   78 1   
    77   74   75 2   
    78   74   79 1   
    79   79   80 1   
    80   79   86 1   
    81   80   81 1   
    82   80   83 1   
    83   80   87 1   
    84   81   82 2   
    85   81   93 1   
    86   83   84 1   
    87   83   85 1   
    88   83   88 1   
    89   84   90 1   
    90   84   91 1   
    91   84   92 1   
    92   85   89 1   
    93   93   94 1   
    94   93  101 1   
    95   94   95 1   
    96   94   97 1   
    97   94  102 1   
    98   95   96 2   
    99   95  112 1   
   100   97   98 1   
   101   97   99 1   
   102   97  103 1   
   103   98  100 1   
   104   98  104 1   
   105   98  105 1   
   106   99  106 1   
   107   99  107 1   
   108   99  108 1   
   109  100  109 1   
   110  100  110 1   
   111  100  111 1   
   112  112  113 1   
   113  112  119 1   
   114  113  114 1   
   115  113  116 1   
   116  113  120 1   
   117  114  115 2   
   118  114  126 1   
   119  116  117 1   
   120  116  118 1   
   121  116  121 1   
   122  117  123 1   
   123  117  124 1   
   124  117  125 1   
   125  118  122 1   
   126  126  127 1   
   127  126  133 1   
   128  127  128 1   
   129  127  130 1   
   130  127  134 1   
   131  128  129 2   
   132  128  140 1   
   133  130  131 1   
   134  130  132 1   
   135  130  135 1   
   136  131  137 1   
   137  131  138 1   
   138  131  139 1   
   139  132  136 1   
   140  140  141 1   
   141  140  149 1   
   142  141  142 1   
   143  141  144 1   
   144  141  150 1   
   145  142  143 2   
   146  142  162 1   
   147  144  145 1   
   148  144  151 1   
   149  144  152 1   
   150  145  146 1   
   151  145  153 1   
   152  145  154 1   
   153  146  147 1   
   154  146  155 1   
   155  146  156 1   
   156  147  148 1   
   157  147  157 1   
   158  147  158 1   
   159  148  159 1   
   160  148  160 1   
   161  148  161 1   
   162  162  163 1   
   163  162  171 1   
   164  163  164 1   
   165  163  166 1   
   166  163  172 1   
   167  164  165 2   
   168  164  177 1   
   169  166  167 1   
   170  166  173 1   
   171  166  174 1   
   172  167  168 1   
   173  167  175 1   
   174  167  176 1   
   175  168  169 1   
   176  168  170 1   
   177  177  178 1   
   178  177  182 1   
   179  178  179 1   
   180  178  180 1   
   181  178  181 1   
   182  184  186 1   
   183  184  188 1   
   184  185  187 1   
   185  185  189 1   
   186  190  191 1   
   187  190  192 1   
@<TRIPOS>SUBSTRUCTURE
     1 MOL         1 TEMP              0 ****  ****    0 ROOT
