@<TRIPOS>MOLECULE
MOL
  192   187     1     0     0
SMALL
resp


@<TRIPOS>ATOM
      1 C1        -10.0660   -1.1640   -2.2330 c3        1 MOL     -0.641354
      2 C2         -8.7940   -0.9700   -1.3540 c         1 MOL      0.912751
      3 O1         -7.6680   -0.9550   -1.8010 o         1 MOL     -0.673528
      4 H1        -10.1910   -2.2220   -2.4620 hc        1 MOL      0.156722
      5 H2        -10.9410   -0.8030   -1.6910 hc        1 MOL      0.156722
      6 H3         -9.9570   -0.6030   -3.1610 hc        1 MOL      0.156722
      7 N1         -8.9570   -0.7030   -0.0790 n         1 MOL     -0.767227
      8 C3         -7.9020   -0.5090    0.9070 c3        1 MOL      0.422962
      9 C4         -7.1880   -1.7770    1.3660 c         1 MOL      0.277092
     10 O2         -7.2250   -2.1120    2.5760 o         1 MOL     -0.508879
     11 C5         -8.3870    0.3410    2.0820 c3        1 MOL     -0.294138
     12 C6         -9.0740    1.6590    1.6320 c         1 MOL      0.732475
     13 O3         -8.7530    2.2990    0.6210 o         1 MOL     -0.656102
     14 O4        -10.0300    1.9940    2.3410 o         1 MOL     -0.656102
     15 H4         -9.9370   -0.6740    0.1970 hn        1 MOL      0.352695
     16 H5         -7.0980   -0.0110    0.3650 h1        1 MOL      0.004543
     17 H6         -7.5130    0.5180    2.7090 hc        1 MOL      0.071109
     18 H7         -9.1570   -0.2190    2.6080 hc        1 MOL      0.071109
     19 N2         -6.5480   -2.4910    0.4750 n         1 MOL     -0.051251
     20 C7         -5.9550   -3.8420    0.6140 c3        1 MOL     -0.013914
     21 C8         -4.5880   -3.8680    1.2130 c         1 MOL      0.596159
     22 O5         -4.2400   -4.7560    1.9500 o         1 MOL     -0.579809
     23 C9         -6.0470   -4.5440   -0.7110 c3        1 MOL     -0.105071
     24 C10        -7.5490   -4.9770   -0.9680 c3        1 MOL      0.143025
     25 C11        -7.6800   -5.5600   -2.3720 c3        1 MOL     -0.131016
     26 C12        -8.9670   -6.3380   -2.5850 c3        1 MOL      0.129598
     27 N3         -9.3020   -6.7380   -3.9570 n4        1 MOL     -0.175109
     28 H8         -6.6300   -2.1550   -0.4740 hn        1 MOL      0.156518
     29 H9         -6.6870   -4.3060    1.2670 h1        1 MOL      0.059560
     30 H10        -5.4930   -5.4830   -0.6860 hc        1 MOL      0.053715
     31 H11        -5.7310   -4.0050   -1.6140 hc        1 MOL      0.053715
     32 H12        -8.0690   -4.0230   -0.9290 hc        1 MOL     -0.037235
     33 H13        -7.9480   -5.7440   -0.3100 hc        1 MOL     -0.037235
     34 H14        -6.9180   -6.3060   -2.5930 hc        1 MOL      0.038392
     35 H15        -7.5630   -4.7310   -3.0610 hc        1 MOL      0.038392
     36 H16        -9.7900   -5.7670   -2.1680 hx        1 MOL      0.046041
     37 H17        -8.8960   -7.2730   -2.0280 hx        1 MOL      0.046041
     38 H18        -9.2300   -5.9350   -4.5670 hn        1 MOL      0.216786
     39 H19        -8.5610   -7.3570   -4.2620 hn        1 MOL      0.216786
     40 H20       -10.1610   -7.2370   -4.1400 hn        1 MOL      0.216786
     41 N4         -3.6460   -3.0040    0.9240 n         1 MOL     -0.536012
     42 C13        -3.5810   -1.8830   -0.1090 c3        1 MOL      0.103065
     43 C14        -3.8670   -0.5510    0.5020 c         1 MOL      0.340342
     44 O6         -3.9750   -0.3620    1.6940 o         1 MOL     -0.427898
     45 C15        -2.2900   -1.9810   -0.8640 c3        1 MOL     -0.164505
     46 C16        -1.0140   -2.2250    0.0010 c         1 MOL      0.679845
     47 O7         -0.7320   -1.2920    0.7510 o         1 MOL     -0.684426
     48 O8         -0.3930   -3.3020   -0.1850 o         1 MOL     -0.684426
     49 H21        -2.8080   -3.2310    1.4490 hn        1 MOL      0.382460
     50 H22        -4.3330   -2.0640   -0.8730 h1        1 MOL      0.068472
     51 H23        -2.0670   -1.1520   -1.5340 hc        1 MOL      0.022927
     52 H24        -2.4370   -2.7250   -1.6460 hc        1 MOL      0.022927
     53 N5         -3.8890    0.5000   -0.3060 n         1 MOL     -0.371578
     54 C17        -4.1270    1.9000    0.0600 c3        1 MOL     -0.073601
     55 C18        -2.9520    2.6150    0.6200 c         1 MOL      0.926287
     56 O9         -1.8830    2.0890    0.8720 o         1 MOL     -0.798442
     57 H25        -3.8360    0.3300   -1.3050 hn        1 MOL      0.270029
     58 H26        -4.9270    1.9870    0.7850 h1        1 MOL      0.068278
     59 H27        -4.4860    2.3480   -0.8700 h1        1 MOL      0.068278
     60 N6         -3.1020    3.9250    0.7580 n         1 MOL     -0.578405
     61 C19        -2.0810    4.9630    1.2190 c3        1 MOL      0.311659
     62 C20        -2.5870    6.3600    0.7770 c         1 MOL      0.491044
     63 O10        -3.7310    6.5330    0.3580 o         1 MOL     -0.526294
     64 C21        -1.8420    5.0020    2.7440 c3        1 MOL     -0.440649
     65 C22        -1.2580    3.7100    3.2650 c         1 MOL      0.705479
     66 O11        -0.0810    3.3570    2.9610 o         1 MOL     -0.676813
     67 O12        -2.0190    2.9420    3.9900 o         1 MOL     -0.676813
     68 H28        -4.0290    4.2830    0.5960 hn        1 MOL      0.268584
     69 H29        -1.1470    4.6940    0.7330 h1        1 MOL      0.045671
     70 H30        -2.8390    5.1050    3.1910 hc        1 MOL      0.123737
     71 H31        -1.2370    5.8120    3.1370 hc        1 MOL      0.123737
     72 N7         -1.8060    7.4220    0.7340 n         1 MOL     -0.497875
     73 C23        -0.3340    7.4070    0.8780 c3        1 MOL     -0.021007
     74 C24         0.4660    6.5370   -0.0810 c         1 MOL      0.691346
     75 O13         0.1430    6.4940   -1.2300 o         1 MOL     -0.543168
     76 H32        -2.2100    8.2150    0.2550 hn        1 MOL      0.338455
     77 H33        -0.1130    7.1030    1.8940 h1        1 MOL      0.057793
     78 H34         0.0870    8.4030    0.7340 h1        1 MOL      0.057793
     79 N8          1.5300    5.9300    0.3940 n         1 MOL     -0.631357
     80 C25         2.2860    5.0110   -0.4770 c3        1 MOL     -0.087467
     81 C26         1.4710    3.7020   -0.8560 c         1 MOL      0.909242
     82 O14         0.9720    3.0760    0.0620 o         1 MOL     -0.701720
     83 C27         3.7940    4.6690   -0.1780 c3        1 MOL      0.530621
     84 C28         4.4540    3.8210   -1.2470 c3        1 MOL     -0.341858
     85 O15         4.0290    4.0930    1.1530 oh        1 MOL     -0.695327
     86 H35         1.7430    5.9140    1.3770 hn        1 MOL      0.312205
     87 H36         2.4000    5.4700   -1.4630 h1        1 MOL      0.041809
     88 H37         4.3430    5.6160   -0.1830 h1        1 MOL     -0.033983
     89 H38         3.4570    4.4540    1.8300 ho        1 MOL      0.420469
     90 H39         4.2870    4.4130   -2.1490 hc        1 MOL      0.095794
     91 H40         5.5280    3.8940   -1.1850 hc        1 MOL      0.095794
     92 H41         4.0350    2.8260   -1.0900 hc        1 MOL      0.095794
     93 N9          1.4450    3.2910   -2.1440 n         1 MOL     -0.690537
     94 C29         0.6490    2.1770   -2.7630 c3        1 MOL      0.053887
     95 C30         1.1930    0.8220   -2.1970 c         1 MOL      0.452608
     96 O16         0.9270    0.4170   -1.0730 o         1 MOL     -0.501802
     97 C31        -0.9070    2.2960   -2.7680 c3        1 MOL      0.078275
     98 C32        -1.3320    3.6640   -3.3270 c3        1 MOL     -0.120504
     99 C33        -1.5850    1.0940   -3.4180 c3        1 MOL     -0.397205
    100 C34        -2.7890    4.0110   -3.3530 c3        1 MOL     -0.172299
    101 H42         1.7890    3.9720   -2.8080 hn        1 MOL      0.313524
    102 H43         0.8690    2.0700   -3.8290 h1        1 MOL      0.058726
    103 H44        -1.2110    2.2430   -1.7220 hc        1 MOL      0.079847
    104 H45        -0.9680    3.7210   -4.3510 hc        1 MOL      0.052434
    105 H46        -0.9380    4.4360   -2.6630 hc        1 MOL      0.052434
    106 H47        -1.1020    0.1780   -3.0880 hc        1 MOL      0.109448
    107 H48        -2.6370    1.0450   -3.1600 hc        1 MOL      0.109448
    108 H49        -1.4900    0.9330   -4.4940 hc        1 MOL      0.109448
    109 H50        -3.3740    3.7090   -2.4910 hc        1 MOL      0.057138
    110 H51        -2.9200    5.0930   -3.4550 hc        1 MOL      0.057138
    111 H52        -3.2180    3.6650   -4.2950 hc        1 MOL      0.057138
    112 N10         1.8940    0.0120   -3.0170 n         1 MOL     -0.336846
    113 C35         2.4050   -1.3700   -2.6950 c3        1 MOL     -0.022027
    114 C36         3.9180   -1.5640   -3.0790 c         1 MOL      0.470704
    115 O17         4.4740   -2.6610   -2.9260 o         1 MOL     -0.565341
    116 C37         1.5590   -2.4700   -3.4290 c3        1 MOL      0.274115
    117 C38         1.3790   -2.3210   -4.9390 c3        1 MOL     -0.354134
    118 O18         0.2160   -2.5780   -2.9360 oh        1 MOL     -0.546796
    119 H53         2.0800    0.3640   -3.9480 hn        1 MOL      0.247188
    120 H54         2.1900   -1.5160   -1.6350 h1        1 MOL      0.104609
    121 H55         1.9040   -3.4780   -3.1730 h1        1 MOL      0.052187
    122 H56         0.2550   -2.9640   -2.0590 ho        1 MOL      0.346373
    123 H57         2.2840   -2.1120   -5.5190 hc        1 MOL      0.093404
    124 H58         0.8100   -3.1840   -5.2820 hc        1 MOL      0.093404
    125 H59         0.7960   -1.4040   -5.0640 hc        1 MOL      0.093404
    126 N11         4.6480   -0.4680   -3.3770 n         1 MOL     -0.310193
    127 C39         6.1560   -0.4870   -3.4310 c3        1 MOL     -0.091875
    128 C40         6.6730   -0.6240   -2.0210 c         1 MOL      0.651460
    129 O19         7.0960    0.3750   -1.3910 o         1 MOL     -0.513661
    130 C41         6.6380    0.7880   -4.3010 c3        1 MOL      0.373949
    131 C42         6.4940    0.5840   -5.7770 c3        1 MOL     -0.221386
    132 O20         5.9640    1.9250   -3.8480 oh        1 MOL     -0.647693
    133 H60         4.1410    0.3790   -3.5770 hn        1 MOL      0.255120
    134 H61         6.6240   -1.3370   -3.9380 h1        1 MOL      0.080555
    135 H62         7.6780    0.9450   -3.9930 h1        1 MOL     -0.017259
    136 H63         6.6070    2.6420   -3.8690 ho        1 MOL      0.410472
    137 H64         7.2120   -0.1900   -6.0360 hc        1 MOL      0.055638
    138 H65         5.4820    0.2780   -6.0510 hc        1 MOL      0.055638
    139 H66         6.7130    1.4580   -6.3920 hc        1 MOL      0.055638
    140 N12         6.6940   -1.9130   -1.5040 n         1 MOL     -0.808566
    141 C43         6.7480   -2.2720   -0.0420 c3        1 MOL      0.415257
    142 C44         5.4880   -1.8270    0.7880 c         1 MOL      0.547860
    143 O21         4.9280   -0.7340    0.5340 o         1 MOL     -0.489292
    144 C45         8.1460   -1.8370    0.5670 c3        1 MOL     -0.589586
    145 C46         9.3510   -2.3830   -0.2530 c3        1 MOL      0.015756
    146 C47        10.6900   -2.1000    0.5560 c3        1 MOL      0.156548
    147 C48        11.8030   -3.0350   -0.0650 c3        1 MOL     -0.017258
    148 N13        13.1190   -2.3780   -0.2960 n4        1 MOL     -0.167498
    149 H67         6.2050   -2.6000   -2.0550 hn        1 MOL      0.402426
    150 H68         6.7660   -3.3580   -0.0320 h1        1 MOL      0.015607
    151 H69         8.2080   -2.3980    1.5040 hc        1 MOL      0.190158
    152 H70         8.2720   -0.7580    0.5760 hc        1 MOL      0.190158
    153 H71         9.4610   -1.8640   -1.2020 hc        1 MOL      0.041461
    154 H72         9.2940   -3.4590   -0.4160 hc        1 MOL      0.041461
    155 H73        10.5430   -2.2160    1.6250 hc        1 MOL      0.000008
    156 H74        11.0740   -1.0890    0.4190 hc        1 MOL      0.000008
    157 H75        11.4360   -3.3860   -1.0340 hx        1 MOL      0.056580
    158 H76        11.8700   -3.8690    0.6340 hx        1 MOL      0.056580
    159 H77        13.2560   -2.0560   -1.2490 hn        1 MOL      0.219719
    160 H78        13.4070   -1.7740    0.4560 hn        1 MOL      0.219719
    161 H79        13.8120   -3.0840   -0.0980 hn        1 MOL      0.219719
    162 N14         5.0710   -2.6080    1.8450 n         1 MOL     -0.812993
    163 C49         4.0000   -2.2110    2.7190 c3        1 MOL      0.572288
    164 C50         2.5810   -2.2640    2.0170 c         1 MOL      0.269814
    165 O22         1.7740   -1.3590    2.2360 o         1 MOL     -0.543794
    166 C51         4.0860   -3.0850    3.9880 c3        1 MOL      0.015924
    167 C52         5.2060   -2.6170    4.9400 c3        1 MOL     -0.262367
    168 C53         5.2760   -3.5130    6.2010 c         1 MOL      0.762938
    169 O23         6.1960   -3.3110    7.0340 o         1 MOL     -0.657806
    170 O24         4.4830   -4.5010    6.3110 o         1 MOL     -0.657806
    171 H80         5.6310   -3.4320    2.0300 hn        1 MOL      0.370973
    172 H81         4.0580   -1.1620    3.0020 h1        1 MOL     -0.029792
    173 H82         4.2760   -4.1190    3.6900 hc        1 MOL      0.018531
    174 H83         3.1330   -3.0070    4.5150 hc        1 MOL      0.018531
    175 H84         4.9110   -1.5980    5.1610 hc        1 MOL      0.020705
    176 H85         6.1520   -2.7280    4.4190 hc        1 MOL      0.020705
    177 N15         2.2040   -3.2400    1.1770 n         1 MOL     -0.293267
    178 C54         2.6930   -4.5870    1.1120 c3        1 MOL     -0.036692
    179 H86         3.1110   -4.7740    0.1230 h1        1 MOL      0.034374
    180 H87         3.4670   -4.7290    1.8670 h1        1 MOL      0.034374
    181 H88         1.8730   -5.2810    1.2960 h1        1 MOL      0.034374
    182 H89         1.3070   -3.0840    0.7330 hn        1 MOL      0.360295
    183 Ca1         0.4340    0.9900    1.6270 Ca        1 MOL      1.863121
    184 O25        -1.6240    0.5360    3.2140 oh        1 MOL     -0.914348
    185 H90        -2.4580    0.1540    2.9380 ho        1 MOL      0.433873
    186 H91        -1.8790    1.3090    3.7250 ho        1 MOL      0.433873
    187 O26         3.0450    1.2510    1.3260 oh        1 MOL     -0.914348
    188 H92         3.8000    0.6730    1.2170 ho        1 MOL      0.433873
    189 H93         3.3850    2.1260    1.1500 ho        1 MOL      0.433873
    190 O27         1.8060    1.0770    4.0290 oh        1 MOL     -0.914348
    191 H94         2.2030    1.8300    4.4760 ho        1 MOL      0.433873
    192 H95         1.9930    0.3320    4.6100 ho        1 MOL      0.433873
@<TRIPOS>BOND
     1    1    2 1   
     2    1    4 1   
     3    1    5 1   
     4    1    6 1   
     5    2    3 2   
     6    2    7 1   
     7    7    8 1   
     8    7   15 1   
     9    8    9 1   
    10    8   11 1   
    11    8   16 1   
    12    9   10 2   
    13    9   19 1   
    14   11   12 1   
    15   11   17 1   
    16   11   18 1   
    17   12   13 1   
    18   12   14 1   
    19   19   20 1   
    20   19   28 1   
    21   20   21 1   
    22   20   23 1   
    23   20   29 1   
    24   21   22 2   
    25   21   41 1   
    26   23   24 1   
    27   23   30 1   
    28   23   31 1   
    29   24   25 1   
    30   24   32 1   
    31   24   33 1   
    32   25   26 1   
    33   25   34 1   
    34   25   35 1   
    35   26   27 1   
    36   26   36 1   
    37   26   37 1   
    38   27   38 1   
    39   27   39 1   
    40   27   40 1   
    41   41   42 1   
    42   41   49 1   
    43   42   43 1   
    44   42   45 1   
    45   42   50 1   
    46   43   44 2   
    47   43   53 1   
    48   45   46 1   
    49   45   51 1   
    50   45   52 1   
    51   46   47 1   
    52   46   48 1   
    53   53   54 1   
    54   53   57 1   
    55   54   55 1   
    56   54   58 1   
    57   54   59 1   
    58   55   56 2   
    59   55   60 1   
    60   60   61 1   
    61   60   68 1   
    62   61   62 1   
    63   61   64 1   
    64   61   69 1   
    65   62   63 2   
    66   62   72 1   
    67   64   65 1   
    68   64   70 1   
    69   64   71 1   
    70   65   66 1   
    71   65   67 1   
    72   72   73 1   
    73   72   76 1   
    74   73   74 1   
    75   73   77 1   
    76   73   78 1   
    77   74   75 2   
    78   74   79 1   
    79   79   80 1   
    80   79   86 1   
    81   80   81 1   
    82   80   83 1   
    83   80   87 1   
    84   81   82 2   
    85   81   93 1   
    86   83   84 1   
    87   83   85 1   
    88   83   88 1   
    89   84   90 1   
    90   84   91 1   
    91   84   92 1   
    92   85   89 1   
    93   93   94 1   
    94   93  101 1   
    95   94   95 1   
    96   94   97 1   
    97   94  102 1   
    98   95   96 2   
    99   95  112 1   
   100   97   98 1   
   101   97   99 1   
   102   97  103 1   
   103   98  100 1   
   104   98  104 1   
   105   98  105 1   
   106   99  106 1   
   107   99  107 1   
   108   99  108 1   
   109  100  109 1   
   110  100  110 1   
   111  100  111 1   
   112  112  113 1   
   113  112  119 1   
   114  113  114 1   
   115  113  116 1   
   116  113  120 1   
   117  114  115 2   
   118  114  126 1   
   119  116  117 1   
   120  116  118 1   
   121  116  121 1   
   122  117  123 1   
   123  117  124 1   
   124  117  125 1   
   125  118  122 1   
   126  126  127 1   
   127  126  133 1   
   128  127  128 1   
   129  127  130 1   
   130  127  134 1   
   131  128  129 2   
   132  128  140 1   
   133  130  131 1   
   134  130  132 1   
   135  130  135 1   
   136  131  137 1   
   137  131  138 1   
   138  131  139 1   
   139  132  136 1   
   140  140  141 1   
   141  140  149 1   
   142  141  142 1   
   143  141  144 1   
   144  141  150 1   
   145  142  143 2   
   146  142  162 1   
   147  144  145 1   
   148  144  151 1   
   149  144  152 1   
   150  145  146 1   
   151  145  153 1   
   152  145  154 1   
   153  146  147 1   
   154  146  155 1   
   155  146  156 1   
   156  147  148 1   
   157  147  157 1   
   158  147  158 1   
   159  148  159 1   
   160  148  160 1   
   161  148  161 1   
   162  162  163 1   
   163  162  171 1   
   164  163  164 1   
   165  163  166 1   
   166  163  172 1   
   167  164  165 2   
   168  164  177 1   
   169  166  167 1   
   170  166  173 1   
   171  166  174 1   
   172  167  168 1   
   173  167  175 1   
   174  167  176 1   
   175  168  169 1   
   176  168  170 1   
   177  177  178 1   
   178  177  182 1   
   179  178  179 1   
   180  178  180 1   
   181  178  181 1   
   182  184  185 1   
   183  184  186 1   
   184  187  188 1   
   185  187  189 1   
   186  190  191 1   
   187  190  192 1   
@<TRIPOS>SUBSTRUCTURE
     1 MOL         1 TEMP              0 ****  ****    0 ROOT
