@<TRIPOS>MOLECULE
MOL
  188   182     1     0     0
SMALL
resp


@<TRIPOS>ATOM
      1 C1          4.3320    2.2650    2.0670 c3        1 MOL     -0.190414
      2 C2          5.4200    2.3800    0.9600 c         1 MOL      0.796526
      3 O1          5.0460    2.1020   -0.1780 o         1 MOL     -0.565006
      4 H1          3.8030    1.3170    1.9590 hc        1 MOL      0.028421
      5 H2          4.8050    2.3070    3.0480 hc        1 MOL      0.028421
      6 H3          3.6240    3.0880    1.9680 hc        1 MOL      0.028421
      7 N1          6.6250    2.7420    1.2940 n         1 MOL     -0.593224
      8 C3          7.7950    2.8710    0.4080 c3        1 MOL      0.122374
      9 C4          8.0100    1.7190   -0.5890 c         1 MOL      0.578983
     10 O2          8.3980    1.8890   -1.7250 o         1 MOL     -0.504229
     11 C5          7.7410    4.2190   -0.3470 c3        1 MOL     -0.413993
     12 C6          7.0630    5.4250    0.3490 c         1 MOL      0.802099
     13 O3          6.0590    5.8740   -0.1300 o         1 MOL     -0.674253
     14 O4          7.5160    5.8570    1.4270 o         1 MOL     -0.674253
     15 H4          6.7560    2.8810    2.2850 hn        1 MOL      0.319320
     16 H5          8.7020    2.8550    1.0080 h1        1 MOL      0.067417
     17 H6          7.1010    4.1340   -1.2280 hc        1 MOL      0.110813
     18 H7          8.7380    4.5200   -0.6870 hc        1 MOL      0.110813
     19 N2          7.9420    0.4770   -0.0460 n         1 MOL     -0.535451
     20 C7          8.4110   -0.8090   -0.7350 c3        1 MOL      0.163941
     21 C8          7.2260   -1.7480   -0.8600 c         1 MOL      0.429076
     22 O5          7.4170   -2.8900   -1.3050 o         1 MOL     -0.562456
     23 C9          9.6160   -1.4660   -0.0230 c3        1 MOL     -0.172713
     24 C10         9.3020   -1.8530    1.4660 c3        1 MOL      0.103538
     25 C11        10.4930   -1.9690    2.4580 c3        1 MOL      0.070342
     26 C12        11.4460   -3.1040    2.1650 c3        1 MOL      0.022328
     27 N3         12.0500   -3.4220    3.4790 n4        1 MOL     -0.266449
     28 H8          7.7830    0.4070    0.9430 hn        1 MOL      0.218358
     29 H9          8.7800   -0.5490   -1.7230 h1        1 MOL      0.111553
     30 H10        10.3400   -0.6530    0.0570 hc        1 MOL      0.054113
     31 H11        10.0280   -2.3220   -0.5610 hc        1 MOL      0.054113
     32 H12         8.6500   -2.7300    1.5710 hc        1 MOL     -0.014430
     33 H13         8.5990   -1.1490    1.9050 hc        1 MOL     -0.014430
     34 H14        10.0330   -2.0980    3.4460 hc        1 MOL     -0.007627
     35 H15        11.0260   -1.0180    2.4600 hc        1 MOL     -0.007627
     36 H16        12.1790   -2.7350    1.4520 hx        1 MOL      0.079532
     37 H17        10.8490   -3.9250    1.7620 hx        1 MOL      0.079532
     38 H18        12.4470   -2.5790    3.8760 hn        1 MOL      0.245352
     39 H19        11.3450   -3.8510    4.0580 hn        1 MOL      0.245352
     40 H20        12.8680   -4.0140    3.4480 hn        1 MOL      0.245352
     41 N4          5.9900   -1.2770   -0.6520 n         1 MOL     -0.180532
     42 C13         4.7950   -2.0900   -0.8470 c3        1 MOL      0.000246
     43 C14         4.0200   -1.8480   -2.2150 c         1 MOL      0.438344
     44 O6          3.8490   -0.6940   -2.6420 o         1 MOL     -0.465008
     45 C15         3.8190   -1.8080    0.3070 c3        1 MOL     -0.318612
     46 C16         2.6070   -2.7420    0.4030 c         1 MOL      0.744738
     47 O7          1.5230   -2.3120   -0.0850 o         1 MOL     -0.708198
     48 O8          2.6400   -3.8270    0.9870 o         1 MOL     -0.708198
     49 H21         5.9380   -0.3770   -0.1960 hn        1 MOL      0.152850
     50 H22         5.0320   -3.1540   -0.8460 h1        1 MOL      0.062077
     51 H23         3.4710   -0.7810    0.2640 hc        1 MOL      0.102800
     52 H24         4.3790   -1.8470    1.2400 hc        1 MOL      0.102800
     53 N5          3.5690   -2.8910   -2.8970 n         1 MOL     -0.219984
     54 C17         2.9650   -2.6420   -4.2260 c3        1 MOL     -0.185493
     55 C18         1.5960   -2.0600   -4.3090 c         1 MOL      0.539226
     56 O9          1.0450   -1.8720   -5.3520 o         1 MOL     -0.532875
     57 H25         3.9690   -3.7910   -2.6650 hn        1 MOL      0.235080
     58 H26         2.9370   -3.6310   -4.6970 h1        1 MOL      0.109605
     59 H27         3.6390   -2.1050   -4.9060 h1        1 MOL      0.109605
     60 N6          0.9500   -1.8500   -3.1440 n         1 MOL     -0.320441
     61 C19        -0.2660   -0.9500   -3.0360 c3        1 MOL     -0.034127
     62 C20         0.0710    0.4770   -2.8270 c         1 MOL      0.608112
     63 O10        -0.7590    1.3360   -3.0170 o         1 MOL     -0.577952
     64 C21        -1.1560   -1.4450   -1.9590 c3        1 MOL     -0.125567
     65 C22        -1.6320   -2.9400   -2.0610 c         1 MOL      0.738635
     66 N7         -2.6520   -3.2000   -2.8400 n         1 MOL     -0.787186
     67 O11        -1.1370   -3.8810   -1.4020 o         1 MOL     -0.705245
     68 H28         1.4290   -2.0840   -2.2840 hn        1 MOL      0.110054
     69 H29        -0.7870   -1.0000   -3.9960 h1        1 MOL      0.080702
     70 H30        -2.0730   -0.8680   -1.8470 hc        1 MOL      0.090884
     71 H31        -0.5950   -1.4040   -1.0200 hc        1 MOL      0.090884
     72 H32        -3.1260   -2.5060   -3.4070 hn        1 MOL      0.369802
     73 H33        -2.8260   -4.1930   -2.9700 hn        1 MOL      0.369802
     74 N8          1.3070    0.7070   -2.3230 n         1 MOL     -0.262584
     75 C23         1.8450    2.0370   -2.0230 c3        1 MOL     -0.133237
     76 C24         0.9190    2.7150   -0.9410 c         1 MOL      0.656083
     77 O12         0.8090    2.1770    0.1340 o         1 MOL     -0.522513
     78 H34         1.9270   -0.0650   -2.0740 hn        1 MOL      0.199552
     79 H35         1.8460    2.5660   -2.9770 h1        1 MOL      0.099588
     80 H36         2.8390    1.8820   -1.6040 h1        1 MOL      0.099588
     81 N9          0.4590    3.9350   -1.3000 n         1 MOL     -0.665384
     82 C25        -0.4300    4.8590   -0.5720 c3        1 MOL      0.295518
     83 C26        -1.7660    4.3270   -0.0640 c         1 MOL      0.324553
     84 O13        -2.7960    5.0120   -0.1940 o         1 MOL     -0.495475
     85 C27         0.3440    5.7880    0.4180 c3        1 MOL     -0.270538
     86 C28        -0.3540    6.9100    1.1680 ca        1 MOL      0.074820
     87 C29        -0.5460    8.1960    0.5810 ca        1 MOL     -0.202991
     88 C30        -0.8610    6.6020    2.4150 ca        1 MOL     -0.202991
     89 C31        -1.3460    9.1880    1.1920 ca        1 MOL     -0.151507
     90 C32        -1.5600    7.5980    3.0960 ca        1 MOL     -0.151507
     91 C33        -1.7320    8.9130    2.5300 ca        1 MOL      0.197073
     92 O14        -2.5030    9.8590    3.0880 oh        1 MOL     -0.428948
     93 H37         0.5290    4.2450   -2.2610 hn        1 MOL      0.349154
     94 H38        -0.7860    5.5760   -1.3190 h1        1 MOL      0.024426
     95 H39         1.2500    6.1300   -0.0680 hc        1 MOL      0.130235
     96 H40         0.6710    5.0990    1.1980 hc        1 MOL      0.130235
     97 H41        -0.1670    8.2970   -0.4290 ha        1 MOL      0.142981
     98 H42        -0.9200    5.6010    2.8150 ha        1 MOL      0.142981
     99 H43        -1.5790   10.1160    0.7000 ha        1 MOL      0.131738
    100 H44        -2.0400    7.4020    4.0490 ha        1 MOL      0.131738
    101 H45        -2.7340    9.6250    3.9860 ho        1 MOL      0.343224
    102 N10        -1.7240    3.0930    0.5080 n         1 MOL     -0.106649
    103 C34        -2.8530    2.2030    0.8080 c3        1 MOL     -0.182689
    104 C35        -3.5890    1.7890   -0.5070 c         1 MOL      0.319312
    105 O15        -3.7560    0.6070   -0.7900 o         1 MOL     -0.459618
    106 C36        -3.7580    2.7800    2.0420 c3        1 MOL      0.181528
    107 C37        -2.9430    2.8870    3.3040 c3        1 MOL     -0.025406
    108 C38        -4.8790    1.7390    2.2210 c3        1 MOL     -0.271069
    109 C39        -3.6980    3.3620    4.5500 c3        1 MOL     -0.411609
    110 H46        -0.8030    2.7060    0.6710 hn        1 MOL      0.185489
    111 H47        -2.3600    1.3650    1.2940 h1        1 MOL      0.109584
    112 H48        -4.1480    3.7380    1.7140 hc        1 MOL      0.018685
    113 H49        -2.1240    3.5550    3.0330 hc        1 MOL      0.027463
    114 H50        -2.5330    1.9220    3.6020 hc        1 MOL      0.027463
    115 H51        -5.5780    1.8020    1.3910 hc        1 MOL      0.079373
    116 H52        -4.5010    0.7260    2.3440 hc        1 MOL      0.079373
    117 H53        -5.4480    1.9780    3.1160 hc        1 MOL      0.079373
    118 H54        -3.0670    3.7120    5.3700 hc        1 MOL      0.110188
    119 H55        -4.4180    4.1280    4.2620 hc        1 MOL      0.110188
    120 H56        -4.1660    2.4710    4.9830 hc        1 MOL      0.110188
    121 N11        -3.9060    2.7960   -1.3840 n         1 MOL     -0.033051
    122 C40        -4.5120    2.5450   -2.7490 c3        1 MOL     -0.121076
    123 C41        -5.8430    1.8400   -2.6240 c         1 MOL      0.458835
    124 O16        -6.1750    1.0200   -3.4710 o         1 MOL     -0.504661
    125 C42        -4.6460    3.9340   -3.5100 c3        1 MOL      0.182546
    126 O17        -4.7030    5.0680   -2.6860 oh        1 MOL     -0.582074
    127 H57        -3.6610    3.7530   -1.1870 hn        1 MOL      0.112913
    128 H58        -3.9310    1.8320   -3.3280 h1        1 MOL      0.087893
    129 H59        -5.5830    3.9680   -4.0790 h1        1 MOL      0.034555
    130 H60        -3.8740    4.0650   -4.2710 h1        1 MOL      0.034555
    131 H61        -4.0040    5.6740   -2.9310 ho        1 MOL      0.408815
    132 N12        -6.6200    2.0460   -1.5380 n         1 MOL     -0.194394
    133 C43        -7.8800    1.4610   -1.2850 c3        1 MOL      0.102198
    134 C44        -7.9440   -0.0640   -1.2640 c         1 MOL      0.542121
    135 O18        -8.9510   -0.6270   -1.7440 o         1 MOL     -0.527412
    136 C45        -9.0060    2.0940   -2.0800 c3        1 MOL     -0.370762
    137 H62        -6.2000    2.5400   -0.7650 hn        1 MOL      0.168971
    138 H63        -8.0270    1.7580   -0.2400 h1        1 MOL      0.049396
    139 H64        -9.9760    1.6340   -1.9020 hc        1 MOL      0.106352
    140 H65        -9.1110    3.1650   -1.9020 hc        1 MOL      0.106352
    141 H66        -8.7890    1.8880   -3.1300 hc        1 MOL      0.106352
    142 N13        -6.8410   -0.6930   -0.8000 n         1 MOL     -0.565770
    143 C46        -6.8550   -2.1520   -0.7340 c3        1 MOL      0.292816
    144 C47        -6.2210   -2.5590    0.5740 c         1 MOL      0.441410
    145 O19        -5.6200   -1.7250    1.3590 o         1 MOL     -0.428200
    146 C48        -6.0810   -2.6760   -1.9930 c3        1 MOL     -0.427849
    147 H67        -5.9860   -0.2250   -0.5250 hn        1 MOL      0.189713
    148 H68        -7.8650   -2.5440   -0.6600 h1        1 MOL      0.021929
    149 H69        -5.0900   -2.2260   -2.0320 hc        1 MOL      0.136600
    150 H70        -6.0630   -3.7630   -1.9310 hc        1 MOL      0.136600
    151 H71        -6.5000   -2.3540   -2.9580 hc        1 MOL      0.136600
    152 N14        -6.4110   -3.8400    0.9750 n         1 MOL     -0.518347
    153 C49        -6.1480   -4.3880    2.3070 c3        1 MOL      0.245860
    154 C50        -6.7720   -3.5880    3.4940 c         1 MOL      0.343868
    155 O20        -6.2000   -3.5790    4.5910 o         1 MOL     -0.484061
    156 C51        -4.6370   -4.7140    2.4470 c3        1 MOL      0.127448
    157 C52        -4.1620   -5.6320    1.3730 c3        1 MOL     -0.350690
    158 C53        -2.8210   -6.3570    1.6270 c         1 MOL      0.767191
    159 O21        -1.7860   -5.6690    1.8960 o         1 MOL     -0.695415
    160 O22        -2.7070   -7.5940    1.5270 o         1 MOL     -0.695415
    161 H72        -7.0100   -4.3440    0.3540 hn        1 MOL      0.280733
    162 H73        -6.6900   -5.3330    2.3750 h1        1 MOL      0.017389
    163 H74        -4.4180   -5.2330    3.3800 hc        1 MOL     -0.017237
    164 H75        -4.1330   -3.7480    2.5010 hc        1 MOL     -0.017237
    165 H76        -4.0410   -5.1130    0.4170 hc        1 MOL      0.039806
    166 H77        -4.9350   -6.3950    1.2970 hc        1 MOL      0.039806
    167 N15        -7.8820   -2.8480    3.2980 n         1 MOL     -0.308734
    168 C54        -8.4280   -1.8930    4.2750 c3        1 MOL     -0.044325
    169 H78        -8.7260   -0.9780    3.7620 h1        1 MOL      0.061016
    170 H79        -9.2960   -2.3320    4.7670 h1        1 MOL      0.061016
    171 H80        -7.6670   -1.6590    5.0210 h1        1 MOL      0.061016
    172 H81        -8.4610   -2.9170    2.4780 hn        1 MOL      0.236473
    173 Ca1         0.3240   -4.7140    0.7580 Ca        1 MOL      1.704849
    174 O23         0.9040   -4.6230    3.3750 oh        1 MOL     -0.796563
    175 H82         1.6400   -4.1520    3.7620 ho        1 MOL      0.395218
    176 H83         0.3610   -4.8840    4.1140 ho        1 MOL      0.395218
    177 O24        -0.6310   -6.8310   -0.8370 oh        1 MOL     -0.796563
    178 H84        -0.1280   -7.5020   -1.3020 ho        1 MOL      0.395218
    179 H85        -1.1770   -6.4290   -1.5140 ho        1 MOL      0.395218
    180 O25         1.3670   -7.0060    1.6250 oh        1 MOL     -0.796563
    181 H86         0.8180   -7.6910    1.9830 ho        1 MOL      0.395218
    182 H87         2.1820   -7.4520    1.3740 ho        1 MOL      0.395218
    183 O26        -0.7880   -2.5320    1.7190 oh        1 MOL     -0.796563
    184 H88        -0.4980   -2.1310    2.5370 ho        1 MOL      0.395218
    185 H89        -1.5300   -2.0080    1.4440 ho        1 MOL      0.395218
    186 O27         1.8550   -5.3910   -1.6230 oh        1 MOL     -0.796563
    187 H90         2.4030   -6.1770   -1.5950 ho        1 MOL      0.395218
    188 H91         1.6050   -5.3050   -2.5370 ho        1 MOL      0.395218
@<TRIPOS>BOND
     1    1    2 1   
     2    1    4 1   
     3    1    5 1   
     4    1    6 1   
     5    2    3 2   
     6    2    7 1   
     7    7    8 1   
     8    7   15 1   
     9    8    9 1   
    10    8   11 1   
    11    8   16 1   
    12    9   10 2   
    13    9   19 1   
    14   11   12 1   
    15   11   17 1   
    16   11   18 1   
    17   12   13 1   
    18   12   14 1   
    19   19   20 1   
    20   19   28 1   
    21   20   21 1   
    22   20   23 1   
    23   20   29 1   
    24   21   22 2   
    25   21   41 1   
    26   23   24 1   
    27   23   30 1   
    28   23   31 1   
    29   24   25 1   
    30   24   32 1   
    31   24   33 1   
    32   25   26 1   
    33   25   34 1   
    34   25   35 1   
    35   26   27 1   
    36   26   36 1   
    37   26   37 1   
    38   27   38 1   
    39   27   39 1   
    40   27   40 1   
    41   41   42 1   
    42   41   49 1   
    43   42   43 1   
    44   42   45 1   
    45   42   50 1   
    46   43   44 2   
    47   43   53 1   
    48   45   46 1   
    49   45   51 1   
    50   45   52 1   
    51   46   47 1   
    52   46   48 1   
    53   53   54 1   
    54   53   57 1   
    55   54   55 1   
    56   54   58 1   
    57   54   59 1   
    58   55   56 2   
    59   55   60 1   
    60   60   61 1   
    61   60   68 1   
    62   61   62 1   
    63   61   64 1   
    64   61   69 1   
    65   62   63 2   
    66   62   74 1   
    67   64   65 1   
    68   64   70 1   
    69   64   71 1   
    70   65   66 1   
    71   65   67 2   
    72   66   72 1   
    73   66   73 1   
    74   74   75 1   
    75   74   78 1   
    76   75   76 1   
    77   75   79 1   
    78   75   80 1   
    79   76   77 2   
    80   76   81 1   
    81   81   82 1   
    82   81   93 1   
    83   82   83 1   
    84   82   85 1   
    85   82   94 1   
    86   83   84 2   
    87   83  102 1   
    88   85   86 1   
    89   85   95 1   
    90   85   96 1   
    91   86   87 ar  
    92   86   88 ar  
    93   87   89 ar  
    94   87   97 1   
    95   88   90 ar  
    96   88   98 1   
    97   89   91 ar  
    98   89   99 1   
    99   90   91 ar  
   100   90  100 1   
   101   91   92 1   
   102   92  101 1   
   103  102  103 1   
   104  102  110 1   
   105  103  104 1   
   106  103  106 1   
   107  103  111 1   
   108  104  105 2   
   109  104  121 1   
   110  106  107 1   
   111  106  108 1   
   112  106  112 1   
   113  107  109 1   
   114  107  113 1   
   115  107  114 1   
   116  108  115 1   
   117  108  116 1   
   118  108  117 1   
   119  109  118 1   
   120  109  119 1   
   121  109  120 1   
   122  121  122 1   
   123  121  127 1   
   124  122  123 1   
   125  122  125 1   
   126  122  128 1   
   127  123  124 2   
   128  123  132 1   
   129  125  126 1   
   130  125  129 1   
   131  125  130 1   
   132  126  131 1   
   133  132  133 1   
   134  132  137 1   
   135  133  134 1   
   136  133  136 1   
   137  133  138 1   
   138  134  135 2   
   139  134  142 1   
   140  136  139 1   
   141  136  140 1   
   142  136  141 1   
   143  142  143 1   
   144  142  147 1   
   145  143  144 1   
   146  143  146 1   
   147  143  148 1   
   148  144  145 2   
   149  144  152 1   
   150  146  149 1   
   151  146  150 1   
   152  146  151 1   
   153  152  153 1   
   154  152  161 1   
   155  153  154 1   
   156  153  156 1   
   157  153  162 1   
   158  154  155 2   
   159  154  167 1   
   160  156  157 1   
   161  156  163 1   
   162  156  164 1   
   163  157  158 1   
   164  157  165 1   
   165  157  166 1   
   166  158  159 1   
   167  158  160 1   
   168  167  168 1   
   169  167  172 1   
   170  168  169 1   
   171  168  170 1   
   172  168  171 1   
   173  174  175 1   
   174  174  176 1   
   175  177  178 1   
   176  177  179 1   
   177  180  181 1   
   178  180  182 1   
   179  183  184 1   
   180  183  185 1   
   181  186  187 1   
   182  186  188 1   
@<TRIPOS>SUBSTRUCTURE
     1 MOL         1 TEMP              0 ****  ****    0 ROOT
