@<TRIPOS>MOLECULE
MOL
  192   187     1     0     0
SMALL
resp


@<TRIPOS>ATOM
      1 C1         12.4810    4.6970   -3.1040 c3        1 MOL     -0.275104
      2 C2         12.1510    3.3520   -2.4090 c         1 MOL      0.526335
      3 O1         12.9120    2.3730   -2.5140 o         1 MOL     -0.549508
      4 H1         12.4790    4.5570   -4.1850 hc        1 MOL      0.078737
      5 H2         11.7300    5.4400   -2.8340 hc        1 MOL      0.078737
      6 H3         13.4650    5.0400   -2.7850 hc        1 MOL      0.078737
      7 N1         11.0890    3.3640   -1.6180 n         1 MOL     -0.142823
      8 C3         10.7510    2.2640   -0.6990 c3        1 MOL     -0.110862
      9 C4          9.2230    1.9230   -0.8710 c         1 MOL      0.442533
     10 O2          8.4370    2.8130   -1.1260 o         1 MOL     -0.669047
     11 C5         11.0650    2.6210    0.7260 c3        1 MOL     -0.043997
     12 C6         10.4910    3.9280    1.4370 c         1 MOL      0.533452
     13 O3         10.9770    4.3390    2.4740 o         1 MOL     -0.608405
     14 O4          9.5790    4.6000    0.9650 o         1 MOL     -0.608405
     15 H4         10.6050    4.2260   -1.3950 hn        1 MOL      0.048302
     16 H5         11.3080    1.3950   -1.0720 h1        1 MOL      0.069536
     17 H6         12.1470    2.6610    0.8350 hc        1 MOL      0.064950
     18 H7         10.8090    1.7580    1.3500 hc        1 MOL      0.064950
     19 N2          8.8530    0.6270   -0.8420 n         1 MOL     -0.275705
     20 C7          7.4880    0.1810   -0.9720 c3        1 MOL     -0.168430
     21 C8          6.6590    0.2670    0.3000 c         1 MOL      0.582962
     22 O5          7.0530   -0.1630    1.3720 o         1 MOL     -0.446848
     23 C9          7.5880   -1.2110   -1.6680 c3        1 MOL     -0.031053
     24 C10         6.2850   -1.3910   -2.3800 c3        1 MOL     -0.013480
     25 C11         6.4260   -2.6060   -3.2990 c3        1 MOL     -0.025138
     26 C12         6.8920   -3.8600   -2.5890 c3        1 MOL      0.069737
     27 N3          7.1350   -4.9210   -3.5280 n4        1 MOL     -0.208446
     28 H8          9.6270   -0.0140   -0.7420 hn        1 MOL      0.269132
     29 H9          7.0330    0.7820   -1.7600 h1        1 MOL      0.148623
     30 H10         7.6910   -1.9790   -0.9040 hc        1 MOL      0.041736
     31 H11         8.3880   -1.2440   -2.4040 hc        1 MOL      0.041736
     32 H12         5.9860   -0.5440   -3.0090 hc        1 MOL      0.041936
     33 H13         5.4800   -1.6000   -1.6780 hc        1 MOL      0.041936
     34 H14         7.2150   -2.3960   -4.0330 hc        1 MOL      0.003088
     35 H15         5.5040   -2.7720   -3.8640 hc        1 MOL      0.003088
     36 H16         6.1680   -4.1700   -1.8330 hx        1 MOL      0.071682
     37 H17         7.8230   -3.7440   -2.0320 hx        1 MOL      0.071682
     38 H18         6.3920   -5.1290   -4.1820 hn        1 MOL      0.239507
     39 H19         7.8550   -4.6430   -4.1670 hn        1 MOL      0.239507
     40 H20         7.3820   -5.8080   -3.1030 hn        1 MOL      0.239507
     41 N4          5.3740    0.7350    0.1400 n         1 MOL     -0.532304
     42 C13         4.3570    0.8740    1.2220 c3        1 MOL      0.072414
     43 C14         2.8990    0.6830    0.7190 c         1 MOL      0.488945
     44 O6          2.4320    1.1810   -0.3080 o         1 MOL     -0.572358
     45 C15         4.4330    2.2440    1.9220 c3        1 MOL      0.028645
     46 C16         5.8420    2.7830    2.4350 c         1 MOL      0.649557
     47 O7          6.6280    3.4680    1.7340 o         1 MOL     -0.655441
     48 O8          6.0240    2.5190    3.6650 o         1 MOL     -0.655441
     49 H21         5.1260    1.1010   -0.7680 hn        1 MOL      0.208178
     50 H22         4.5630    0.0750    1.9370 h1        1 MOL      0.104289
     51 H23         3.6690    2.3300    2.6910 hc        1 MOL     -0.027847
     52 H24         4.1580    2.9860    1.1700 hc        1 MOL     -0.027847
     53 N5          1.9700   -0.0660    1.3670 n         1 MOL     -0.370373
     54 C17         2.1920   -0.8680    2.6120 c3        1 MOL     -0.254855
     55 C18         2.8670   -2.2800    2.4970 c         1 MOL      0.713098
     56 O9          3.6670   -2.5100    1.6050 o         1 MOL     -0.561275
     57 H25         1.0800   -0.1800    0.9170 hn        1 MOL      0.328730
     58 H26         1.1870   -0.9510    3.0320 h1        1 MOL      0.122322
     59 H27         2.7680   -0.2910    3.3370 h1        1 MOL      0.122322
     60 N6          2.3540   -3.1510    3.3550 n         1 MOL     -0.503468
     61 C19         2.8770   -4.5070    3.5450 c3        1 MOL      0.085149
     62 C20         2.0910   -5.4940    2.7250 c         1 MOL      0.583433
     63 O10         0.8910   -5.6050    2.9480 o         1 MOL     -0.516115
     64 C21         2.8100   -4.8600    5.0330 c3        1 MOL     -0.298942
     65 C22         3.0510   -6.3420    5.3020 c         1 MOL      0.738362
     66 O11         2.2850   -6.9480    6.1250 o         1 MOL     -0.663815
     67 O12         3.9930   -6.9210    4.7500 o         1 MOL     -0.663815
     68 H28         1.6110   -2.8600    3.9770 hn        1 MOL      0.301086
     69 H29         3.8810   -4.6660    3.1410 h1        1 MOL      0.008321
     70 H30         1.8460   -4.5510    5.4570 hc        1 MOL      0.080558
     71 H31         3.5130   -4.2530    5.6040 hc        1 MOL      0.080558
     72 N7          2.8050   -6.0620    1.7590 n         1 MOL     -0.333579
     73 C23         2.2250   -6.8710    0.6520 c3        1 MOL     -0.253391
     74 C24         1.4560   -6.0490   -0.4170 c         1 MOL      0.495471
     75 O13         0.8830   -6.6430   -1.3310 o         1 MOL     -0.567632
     76 H32         3.7820   -5.8390    1.6240 hn        1 MOL      0.286225
     77 H33         1.5160   -7.6370    0.9640 h1        1 MOL      0.150742
     78 H34         3.0280   -7.2420    0.0100 h1        1 MOL      0.150742
     79 N8          1.5240   -4.7150   -0.4330 n         1 MOL     -0.013696
     80 C25         0.9230   -3.7720   -1.3610 c3        1 MOL     -0.254407
     81 C26         0.2310   -2.5730   -0.7980 c         1 MOL      0.544876
     82 O14         0.4800   -2.1740    0.3480 o         1 MOL     -0.484271
     83 C27         1.8510   -3.4540   -2.5340 c3        1 MOL      0.169408
     84 C28         3.0730   -2.6850   -2.0640 c3        1 MOL     -0.435680
     85 O15         2.3510   -4.6270   -3.1920 oh        1 MOL     -0.598433
     86 H35         2.0140   -4.4080    0.3990 hn        1 MOL      0.036069
     87 H36         0.0110   -4.2810   -1.6720 h1        1 MOL      0.113650
     88 H37         1.2940   -2.8680   -3.2710 h1        1 MOL      0.060306
     89 H38         1.6560   -5.1090   -3.6620 ho        1 MOL      0.408980
     90 H39         3.7160   -3.5090   -1.7510 hc        1 MOL      0.156882
     91 H40         3.4590   -2.0930   -2.9000 hc        1 MOL      0.156882
     92 H41         2.9190   -2.0680   -1.1730 hc        1 MOL      0.156882
     93 N9         -0.4970   -1.8960   -1.7100 n         1 MOL     -0.306262
     94 C29        -0.9680   -0.5010   -1.2960 c3        1 MOL     -0.263124
     95 C30        -2.2300   -0.5350   -0.4200 c         1 MOL      0.637156
     96 O16        -2.4660    0.3150    0.4330 o         1 MOL     -0.546057
     97 C31        -1.0960    0.3180   -2.6560 c3        1 MOL      0.260419
     98 C32         0.2030    0.3520   -3.5130 c3        1 MOL     -0.018588
     99 C33        -1.6150    1.7220   -2.3220 c3        1 MOL     -0.320562
    100 C34         0.1820    1.3430   -4.7380 c3        1 MOL     -0.174571
    101 H42        -0.6160   -2.1540   -2.6860 hn        1 MOL      0.263286
    102 H43        -0.1020   -0.0010   -0.8530 h1        1 MOL      0.097087
    103 H44        -1.8800   -0.1670   -3.2330 hc        1 MOL     -0.010522
    104 H45         0.2790   -0.6810   -3.8410 hc        1 MOL      0.006843
    105 H46         1.0930    0.5900   -2.9300 hc        1 MOL      0.006843
    106 H47        -2.4770    1.6530   -1.6530 hc        1 MOL      0.087555
    107 H48        -0.8710    2.3980   -1.9040 hc        1 MOL      0.087555
    108 H49        -2.0010    2.2220   -3.2100 hc        1 MOL      0.087555
    109 H50         0.9910    1.2080   -5.4580 hc        1 MOL      0.043394
    110 H51        -0.7860    1.1270   -5.1910 hc        1 MOL      0.043394
    111 H52         0.2000    2.3560   -4.3360 hc        1 MOL      0.043394
    112 N10        -3.0000   -1.6150   -0.5350 n         1 MOL     -0.407532
    113 C35        -4.3280   -1.8750   -0.0440 c3        1 MOL     -0.081637
    114 C36        -5.1440   -2.2260   -1.2060 c         1 MOL      0.679926
    115 O17        -4.6630   -2.7640   -2.2610 o         1 MOL     -0.545294
    116 C37        -4.2620   -3.0210    1.0300 c3        1 MOL      0.385288
    117 C38        -5.6350   -3.4790    1.5480 c3        1 MOL     -0.394811
    118 O18        -3.5990   -4.1290    0.4110 oh        1 MOL     -0.604207
    119 H53        -2.6380   -2.2750   -1.1960 hn        1 MOL      0.184235
    120 H54        -4.7180   -0.9500    0.3660 h1        1 MOL      0.068623
    121 H55        -3.6170   -2.7580    1.8680 h1        1 MOL      0.037410
    122 H56        -2.7130   -4.2740    0.7580 ho        1 MOL      0.399274
    123 H57        -5.4620   -4.1550    2.3910 hc        1 MOL      0.107682
    124 H58        -6.1400   -2.5910    1.9440 hc        1 MOL      0.107682
    125 H59        -6.2850   -3.9380    0.8070 hc        1 MOL      0.107682
    126 N11        -6.4340   -1.8720   -1.0570 n         1 MOL     -0.564151
    127 C39        -7.5280   -2.0840   -2.0220 c3        1 MOL     -0.068717
    128 C40        -8.5250   -0.9630   -2.0140 c         1 MOL      0.696964
    129 O19        -8.6740   -0.3500   -3.0950 o         1 MOL     -0.555629
    130 C41        -8.2090   -3.4090   -1.8580 c3        1 MOL      0.350445
    131 C42        -8.9270   -3.8310   -3.1390 c3        1 MOL     -0.308299
    132 O20        -9.0100   -3.5020   -0.7190 oh        1 MOL     -0.680557
    133 H60        -6.6050   -1.3020   -0.2340 hn        1 MOL      0.309739
    134 H61        -7.0490   -2.0660   -3.0040 h1        1 MOL      0.114988
    135 H62        -7.4310   -4.1700   -1.7270 h1        1 MOL      0.040652
    136 H63        -9.6520   -4.2110   -0.8230 ho        1 MOL      0.432918
    137 H64        -8.1920   -3.8780   -3.9390 hc        1 MOL      0.075125
    138 H65        -9.5370   -4.7160   -2.9820 hc        1 MOL      0.075125
    139 H66        -9.4920   -2.9750   -3.5300 hc        1 MOL      0.075125
    140 N12        -9.0440   -0.5410   -0.7910 n         1 MOL     -0.599409
    141 C43       -10.0250    0.6200   -0.7310 c3        1 MOL      0.013559
    142 C44        -9.7670    1.4610    0.5590 c         1 MOL      0.561877
    143 O21        -9.6630    0.8440    1.6150 o         1 MOL     -0.527978
    144 C45       -11.4840    0.0930   -0.5820 c3        1 MOL     -0.157662
    145 C46       -12.4360    1.1780   -0.9710 c3        1 MOL     -0.086093
    146 C47       -13.8620    0.8110   -0.8130 c3        1 MOL      0.309431
    147 C48       -14.7570    1.8690   -1.3930 c3        1 MOL     -0.052902
    148 N13       -16.1540    1.4290   -1.4750 n4        1 MOL     -0.205229
    149 H67        -8.6860   -1.0030    0.0290 hn        1 MOL      0.366786
    150 H68        -9.8430    1.2420   -1.6060 h1        1 MOL      0.085587
    151 H69       -11.7950   -0.2030    0.4220 hc        1 MOL      0.082439
    152 H70       -11.5340   -0.8010   -1.1970 hc        1 MOL      0.082439
    153 H71       -12.1900    1.4300   -2.0050 hc        1 MOL      0.015090
    154 H72       -12.2840    2.0630   -0.3570 hc        1 MOL      0.015090
    155 H73       -14.0800    0.5370    0.2250 hc        1 MOL     -0.050612
    156 H74       -14.0720   -0.1190   -1.3550 hc        1 MOL     -0.050612
    157 H75       -14.3230    2.1950   -2.3340 hx        1 MOL      0.087638
    158 H76       -14.7680    2.7200   -0.7190 hx        1 MOL      0.087638
    159 H77       -16.6910    2.0450   -2.0670 hn        1 MOL      0.236213
    160 H78       -16.2500    0.4990   -1.8510 hn        1 MOL      0.236213
    161 H79       -16.6250    1.3700   -0.5820 hn        1 MOL      0.236213
    162 N14        -9.5550    2.7740    0.4830 n         1 MOL     -0.559424
    163 C49        -9.2690    3.6630    1.5910 c3        1 MOL      0.667555
    164 C50        -7.7950    3.5340    2.0450 c         1 MOL      0.258030
    165 O22        -7.6010    3.1080    3.1410 o         1 MOL     -0.486433
    166 C51        -9.7100    5.1430    1.5020 c3        1 MOL     -0.108752
    167 C52       -11.2690    5.3080    1.4130 c3        1 MOL     -0.064831
    168 C53       -11.6050    6.6760    1.9550 c         1 MOL      0.738011
    169 O23       -11.0920    7.7570    1.6500 o         1 MOL     -0.666472
    170 O24       -12.5080    6.6650    2.8140 o         1 MOL     -0.666472
    171 H80        -9.6760    3.1690   -0.4460 hn        1 MOL      0.273906
    172 H81        -9.7480    3.3340    2.5080 h1        1 MOL     -0.043476
    173 H82        -9.2920    5.5770    0.5930 hc        1 MOL      0.010158
    174 H83        -9.5050    5.7060    2.4120 hc        1 MOL      0.010158
    175 H84       -11.7780    4.4400    1.8230 hc        1 MOL     -0.052694
    176 H85       -11.5300    5.3000    0.3530 hc        1 MOL     -0.052694
    177 N15        -6.7250    3.8000    1.2470 n         1 MOL     -0.401840
    178 C54        -6.6610    4.3870   -0.1910 c3        1 MOL     -0.122250
    179 H86        -5.7460    4.0520   -0.6790 h1        1 MOL      0.073439
    180 H87        -7.5230    4.0440   -0.7630 h1        1 MOL      0.073439
    181 H88        -6.6670    5.4750   -0.1410 h1        1 MOL      0.073439
    182 H89        -5.8520    3.6810    1.7350 hn        1 MOL      0.317206
    183 Ca1         7.3830    4.9520   -0.1430 Ca        1 MOL      1.731974
    184 O25         5.1850    4.0710   -1.1790 oh        1 MOL     -0.876796
    185 H90         4.9590    3.2170   -1.5580 ho        1 MOL      0.434480
    186 H91         4.3450    4.4620   -0.9460 ho        1 MOL      0.434480
    187 O26         8.4570    7.2710    0.6250 oh        1 MOL     -0.876796
    188 H92         8.7120    7.8890   -0.0570 ho        1 MOL      0.434480
    189 H93         9.1550    7.3260    1.2670 ho        1 MOL      0.434480
    190 O27         5.5070    6.4340    1.1230 oh        1 MOL     -0.876796
    191 H94         5.5050    7.2870    0.6940 ho        1 MOL      0.434480
    192 H95         4.6290    6.3530    1.4980 ho        1 MOL      0.434480
@<TRIPOS>BOND
     1    1    2 1   
     2    1    4 1   
     3    1    5 1   
     4    1    6 1   
     5    2    3 2   
     6    2    7 1   
     7    7    8 1   
     8    7   15 1   
     9    8    9 1   
    10    8   11 1   
    11    8   16 1   
    12    9   10 2   
    13    9   19 1   
    14   11   12 1   
    15   11   17 1   
    16   11   18 1   
    17   12   13 1   
    18   12   14 1   
    19   19   20 1   
    20   19   28 1   
    21   20   21 1   
    22   20   23 1   
    23   20   29 1   
    24   21   22 2   
    25   21   41 1   
    26   23   24 1   
    27   23   30 1   
    28   23   31 1   
    29   24   25 1   
    30   24   32 1   
    31   24   33 1   
    32   25   26 1   
    33   25   34 1   
    34   25   35 1   
    35   26   27 1   
    36   26   36 1   
    37   26   37 1   
    38   27   38 1   
    39   27   39 1   
    40   27   40 1   
    41   41   42 1   
    42   41   49 1   
    43   42   43 1   
    44   42   45 1   
    45   42   50 1   
    46   43   44 2   
    47   43   53 1   
    48   45   46 1   
    49   45   51 1   
    50   45   52 1   
    51   46   47 1   
    52   46   48 1   
    53   53   54 1   
    54   53   57 1   
    55   54   55 1   
    56   54   58 1   
    57   54   59 1   
    58   55   56 2   
    59   55   60 1   
    60   60   61 1   
    61   60   68 1   
    62   61   62 1   
    63   61   64 1   
    64   61   69 1   
    65   62   63 2   
    66   62   72 1   
    67   64   65 1   
    68   64   70 1   
    69   64   71 1   
    70   65   66 1   
    71   65   67 1   
    72   72   73 1   
    73   72   76 1   
    74   73   74 1   
    75   73   77 1   
    76   73   78 1   
    77   74   75 2   
    78   74   79 1   
    79   79   80 1   
    80   79   86 1   
    81   80   81 1   
    82   80   83 1   
    83   80   87 1   
    84   81   82 2   
    85   81   93 1   
    86   83   84 1   
    87   83   85 1   
    88   83   88 1   
    89   84   90 1   
    90   84   91 1   
    91   84   92 1   
    92   85   89 1   
    93   93   94 1   
    94   93  101 1   
    95   94   95 1   
    96   94   97 1   
    97   94  102 1   
    98   95   96 2   
    99   95  112 1   
   100   97   98 1   
   101   97   99 1   
   102   97  103 1   
   103   98  100 1   
   104   98  104 1   
   105   98  105 1   
   106   99  106 1   
   107   99  107 1   
   108   99  108 1   
   109  100  109 1   
   110  100  110 1   
   111  100  111 1   
   112  112  113 1   
   113  112  119 1   
   114  113  114 1   
   115  113  116 1   
   116  113  120 1   
   117  114  115 2   
   118  114  126 1   
   119  116  117 1   
   120  116  118 1   
   121  116  121 1   
   122  117  123 1   
   123  117  124 1   
   124  117  125 1   
   125  118  122 1   
   126  126  127 1   
   127  126  133 1   
   128  127  128 1   
   129  127  130 1   
   130  127  134 1   
   131  128  129 2   
   132  128  140 1   
   133  130  131 1   
   134  130  132 1   
   135  130  135 1   
   136  131  137 1   
   137  131  138 1   
   138  131  139 1   
   139  132  136 1   
   140  140  141 1   
   141  140  149 1   
   142  141  142 1   
   143  141  144 1   
   144  141  150 1   
   145  142  143 2   
   146  142  162 1   
   147  144  145 1   
   148  144  151 1   
   149  144  152 1   
   150  145  146 1   
   151  145  153 1   
   152  145  154 1   
   153  146  147 1   
   154  146  155 1   
   155  146  156 1   
   156  147  148 1   
   157  147  157 1   
   158  147  158 1   
   159  148  159 1   
   160  148  160 1   
   161  148  161 1   
   162  162  163 1   
   163  162  171 1   
   164  163  164 1   
   165  163  166 1   
   166  163  172 1   
   167  164  165 2   
   168  164  177 1   
   169  166  167 1   
   170  166  173 1   
   171  166  174 1   
   172  167  168 1   
   173  167  175 1   
   174  167  176 1   
   175  168  169 1   
   176  168  170 1   
   177  177  178 1   
   178  177  182 1   
   179  178  179 1   
   180  178  180 1   
   181  178  181 1   
   182  184  185 1   
   183  184  186 1   
   184  187  188 1   
   185  187  189 1   
   186  190  191 1   
   187  190  192 1   
@<TRIPOS>SUBSTRUCTURE
     1 MOL         1 TEMP              0 ****  ****    0 ROOT
