@<TRIPOS>MOLECULE
MOL
  181   177     1     0     0
SMALL
resp


@<TRIPOS>ATOM
      1 C1          2.8140   -1.3020    4.8140 c3        1 MOL     -0.391455
      2 C2          4.0030   -0.4390    4.2080 c         1 MOL      0.823228
      3 O1          3.8890    0.6960    3.8600 o         1 MOL     -0.578604
      4 H1          1.9220   -0.6810    4.8980 hc        1 MOL      0.090218
      5 H2          2.6070   -2.1470    4.1590 hc        1 MOL      0.090218
      6 H3          3.0960   -1.6670    5.8020 hc        1 MOL      0.090218
      7 N1          5.1600   -1.1330    4.1110 n         1 MOL     -0.868399
      8 C3          6.4690   -0.5740    3.6420 c3        1 MOL      0.638064
      9 C4          6.8310   -0.9670    2.2220 c         1 MOL      0.252713
     10 O2          6.8900   -0.2020    1.2920 o         1 MOL     -0.453256
     11 C5          7.5700   -0.9960    4.7040 c3        1 MOL     -0.224343
     12 C6          8.8810   -0.2750    4.4390 c         1 MOL      0.715894
     13 O3          9.1240    0.5030    3.4540 o         1 MOL     -0.720187
     14 O4          9.7150   -0.5540    5.3210 o         1 MOL     -0.720187
     15 H4          5.1650   -2.1010    4.4130 hn        1 MOL      0.331477
     16 H5          6.4210    0.5160    3.6620 h1        1 MOL     -0.032244
     17 H6          7.8030   -2.0550    4.6270 hc        1 MOL     -0.006129
     18 H7          7.1250   -0.6740    5.6450 hc        1 MOL     -0.006129
     19 N2          7.0080   -2.2950    2.1120 n         1 MOL     -0.331063
     20 C7          7.5250   -3.0160    0.9750 c3        1 MOL      0.309136
     21 C8          6.9390   -2.6730   -0.3710 c         1 MOL      0.587752
     22 O5          7.6910   -2.4560   -1.2830 o         1 MOL     -0.574527
     23 C9          9.0720   -2.8600    1.0090 c3        1 MOL     -0.485091
     24 H8          6.6480   -2.8540    2.8730 hn        1 MOL      0.194127
     25 H9          7.1900   -4.0490    1.0620 h1        1 MOL     -0.019223
     26 H10         9.4930   -3.5880    0.3160 hc        1 MOL      0.129354
     27 H11         9.3340   -1.8550    0.6810 hc        1 MOL      0.129354
     28 H12         9.4510   -3.0850    2.0000 hc        1 MOL      0.129354
     29 N3          5.6790   -2.6000   -0.5440 n         1 MOL     -0.791852
     30 C10         4.7870   -2.3140   -1.7390 c3        1 MOL      0.657811
     31 C11         5.1180   -1.0050   -2.4440 c         1 MOL      0.223599
     32 O6          4.7280   -0.8430   -3.5120 o         1 MOL     -0.436283
     33 C12         4.9980   -3.4960   -2.7600 c3        1 MOL     -0.227057
     34 C13         3.9250   -3.7700   -3.8180 c         1 MOL      0.750567
     35 O7          4.2190   -4.3770   -4.8730 o         1 MOL     -0.712987
     36 O8          2.7300   -3.3870   -3.5970 o         1 MOL     -0.712987
     37 H13         5.1370   -2.9730    0.2220 hn        1 MOL      0.296566
     38 H14         3.7440   -2.2910   -1.4290 h1        1 MOL     -0.095025
     39 H15         5.0400   -4.4100   -2.1680 hc        1 MOL      0.032630
     40 H16         5.9240   -3.3630   -3.3180 hc        1 MOL      0.032630
     41 N4          5.8040   -0.0490   -1.8000 n         1 MOL     -0.007422
     42 C14         6.1250    1.3100   -2.3520 c3        1 MOL     -0.248802
     43 C15         4.9720    2.2540   -2.6120 c         1 MOL      0.570273
     44 O9          5.0830    3.2130   -3.4320 o         1 MOL     -0.577918
     45 H17         6.1290   -0.2740   -0.8690 hn        1 MOL      0.148115
     46 H18         6.5780    1.0460   -3.3110 h1        1 MOL      0.114498
     47 H19         6.8200    1.8040   -1.6670 h1        1 MOL      0.114498
     48 N5          3.7330    1.9220   -2.1170 n         1 MOL     -0.132010
     49 C16         2.4820    2.4310   -2.5640 c3        1 MOL     -0.198962
     50 C17         2.2610    3.9310   -2.1440 c         1 MOL      0.614830
     51 O10         2.4710    4.1630   -0.9630 o         1 MOL     -0.569049
     52 C18         1.4300    1.4930   -2.0290 c3        1 MOL     -0.381092
     53 C19         1.3030    0.2430   -2.8040 c         1 MOL      0.602822
     54 N6          0.9430    0.3820   -4.0520 n         1 MOL     -0.723410
     55 O11         1.8210   -0.8150   -2.4690 o         1 MOL     -0.484910
     56 H20         3.7440    1.1550   -1.4550 hn        1 MOL      0.124293
     57 H21         2.4660    2.3400   -3.6480 h1        1 MOL      0.090543
     58 H22         0.5100    2.0890   -2.0850 hc        1 MOL      0.185238
     59 H23         1.3940    1.3170   -0.9570 hc        1 MOL      0.185238
     60 H24         0.8950    1.2620   -4.5420 hn        1 MOL      0.344852
     61 H25         0.9940   -0.4310   -4.6460 hn        1 MOL      0.344852
     62 N7          1.7770    4.8070   -2.9770 n         1 MOL     -0.376353
     63 C20         1.4900    6.1920   -2.5600 c3        1 MOL     -0.151224
     64 C21         0.1050    6.5150   -2.0740 c         1 MOL      0.579714
     65 O12        -0.9220    6.0860   -2.6150 o         1 MOL     -0.531527
     66 H26         1.6570    4.6200   -3.9640 hn        1 MOL      0.273267
     67 H27         1.6660    6.8620   -3.4120 h1        1 MOL      0.107535
     68 H28         2.2870    6.4970   -1.8710 h1        1 MOL      0.107535
     69 N8          0.0590    7.2160   -0.9590 n         1 MOL     -0.453417
     70 C22        -1.1730    7.6820   -0.3840 c3        1 MOL     -0.368324
     71 C23        -1.9320    6.6280    0.4710 c         1 MOL      0.502391
     72 O13        -2.9020    6.9100    1.1920 o         1 MOL     -0.587269
     73 C24        -1.1580    9.0220    0.2130 c3        1 MOL      0.616242
     74 C25        -0.3860    9.0200    1.4670 c3        1 MOL     -0.344331
     75 O14        -0.5620    9.9490   -0.6270 oh        1 MOL     -0.651760
     76 H29         0.9610    7.5600   -0.6720 hn        1 MOL      0.279533
     77 H30        -1.8290    7.7970   -1.2440 h1        1 MOL      0.164665
     78 H31        -2.1600    9.3780    0.4330 h1        1 MOL      0.011396
     79 H32         0.2930    9.5650   -0.8420 ho        1 MOL      0.370303
     80 H33        -0.8270    8.4190    2.2600 hc        1 MOL      0.073863
     81 H34         0.6760    8.8040    1.3260 hc        1 MOL      0.073863
     82 H35        -0.4600   10.0170    1.9070 hc        1 MOL      0.073863
     83 N9         -1.4120    5.4420    0.5130 n         1 MOL     -0.139124
     84 C26        -1.8020    4.3050    1.3320 c3        1 MOL     -0.004609
     85 C27        -1.9530    3.1070    0.3910 c         1 MOL      0.402837
     86 O15        -1.4360    3.1130   -0.6980 o         1 MOL     -0.448793
     87 C28        -0.7320    3.9540    2.3540 c3        1 MOL      0.182730
     88 C29         0.6460    3.6440    1.9100 c3        1 MOL      0.088729
     89 C30        -0.6490    5.0830    3.4040 c3        1 MOL     -0.449274
     90 C31         1.3840    2.8710    2.9680 c3        1 MOL     -0.160101
     91 H36        -0.5940    5.2510   -0.0550 hn        1 MOL      0.158528
     92 H37        -2.8130    4.5380    1.6680 h1        1 MOL      0.066607
     93 H38        -1.1420    3.0830    2.8700 hc        1 MOL     -0.034731
     94 H39         1.1920    4.5620    1.6890 hc        1 MOL      0.048181
     95 H40         0.6030    3.0040    1.0270 hc        1 MOL      0.048181
     96 H41        -0.5700    6.0640    2.9220 hc        1 MOL      0.103520
     97 H42        -1.5780    5.0520    3.9750 hc        1 MOL      0.103520
     98 H43         0.1730    4.9650    4.0990 hc        1 MOL      0.103520
     99 H44         1.4170    3.5410    3.8330 hc        1 MOL      0.037655
    100 H45         0.8210    1.9540    3.1650 hc        1 MOL      0.037655
    101 H46         2.4020    2.5820    2.7240 hc        1 MOL      0.037655
    102 N10        -2.4550    1.9700    0.8730 n         1 MOL     -0.446154
    103 C32        -2.3630    0.6820    0.1040 c3        1 MOL      0.072128
    104 C33        -3.7770   -0.0400    0.0270 c         1 MOL      0.518433
    105 O16        -3.8160   -1.2650   -0.0070 o         1 MOL     -0.465533
    106 C34        -1.3460   -0.2380    0.7620 c3        1 MOL      0.006956
    107 C35        -0.7040   -1.2520   -0.2310 c         1 MOL      0.384309
    108 O17        -1.2030   -1.4390   -1.3930 o         1 MOL     -0.662160
    109 O18         0.3650   -1.8760    0.0630 o         1 MOL     -0.662160
    110 H47        -2.8820    1.9780    1.7900 hn        1 MOL      0.247721
    111 H48        -2.0310    0.9190   -0.9050 h1        1 MOL      0.060389
    112 H49        -1.7630   -0.7880    1.5990 hc        1 MOL      0.031223
    113 H50        -0.5040    0.3850    1.0910 hc        1 MOL      0.031223
    114 N11        -4.8940    0.7240    0.0100 n         1 MOL     -0.500933
    115 C36        -6.1730    0.1360   -0.1610 c3        1 MOL      0.305643
    116 C37        -6.5190   -0.9720    0.8580 c         1 MOL      0.263829
    117 O19        -6.4490   -0.6290    2.0270 o         1 MOL     -0.514390
    118 C38        -7.1580    1.2600   -0.2090 c3        1 MOL     -0.179762
    119 C39        -8.5710    0.7400   -0.6040 ca        1 MOL      0.066232
    120 C40        -8.8990    0.6800   -1.9470 ca        1 MOL     -0.168249
    121 C41        -9.5450    0.3630    0.3520 ca        1 MOL     -0.168249
    122 C42       -10.0800    0.0320   -2.3190 ca        1 MOL     -0.077806
    123 C43       -10.7610   -0.2310   -0.0090 ca        1 MOL     -0.077806
    124 C44       -11.0010   -0.4900   -1.3510 ca        1 MOL     -0.163945
    125 H51        -4.7860    1.7200    0.1660 hn        1 MOL      0.273941
    126 H52        -6.2070   -0.3790   -1.1240 h1        1 MOL     -0.041404
    127 H53        -6.8880    2.0090   -0.9570 hc        1 MOL      0.082834
    128 H54        -7.1790    1.7890    0.7420 hc        1 MOL      0.082834
    129 H55        -8.2690    1.0440   -2.7610 ha        1 MOL      0.125778
    130 H56        -9.2490    0.4680    1.3760 ha        1 MOL      0.125778
    131 H57       -10.2950    0.0690   -3.3750 ha        1 MOL      0.099327
    132 H58       -11.4390   -0.5730    0.7660 ha        1 MOL      0.099327
    133 H59       -11.9990   -0.8700   -1.5230 ha        1 MOL      0.115487
    134 N12        -6.8700   -2.2110    0.4820 n         1 MOL      0.016752
    135 C45        -7.2270   -3.2410    1.4720 c3        1 MOL     -0.019422
    136 C46        -6.0110   -3.6600    2.3820 c         1 MOL      0.308403
    137 O20        -6.2120   -4.2990    3.3860 o         1 MOL     -0.497098
    138 C47        -7.8790   -4.4370    0.7080 c3        1 MOL     -0.085353
    139 C48        -7.3930   -4.2460   -0.6880 c3        1 MOL      0.048537
    140 C49        -6.9860   -2.7720   -0.8740 c3        1 MOL     -0.048016
    141 H60        -7.9780   -2.8670    2.1750 h1        1 MOL      0.076444
    142 H61        -7.5960   -5.4250    1.0600 hc        1 MOL      0.048675
    143 H62        -8.9650   -4.3480    0.6950 hc        1 MOL      0.048675
    144 H63        -6.5790   -4.9290   -0.9120 hc        1 MOL      0.000534
    145 H64        -8.1740   -4.4650   -1.4240 hc        1 MOL      0.000534
    146 H65        -5.9720   -2.8490   -1.2850 h1        1 MOL      0.043013
    147 H66        -7.6350   -2.2670   -1.5800 h1        1 MOL      0.043013
    148 N13        -4.7400   -3.4180    1.9500 n         1 MOL     -0.084017
    149 C50        -3.5220   -3.8220    2.7720 c3        1 MOL     -0.274267
    150 C51        -3.1340   -2.7480    3.8290 c         1 MOL      0.454492
    151 O21        -2.5010   -3.1170    4.7900 o         1 MOL     -0.539249
    152 C52        -2.2550   -3.9480    1.8690 c3        1 MOL      0.130315
    153 C53        -2.4890   -5.0470    0.7910 c3        1 MOL     -0.150562
    154 C54        -1.2350   -5.0900   -0.0910 c         1 MOL      0.577976
    155 O22        -1.2120   -4.4000   -1.1670 o         1 MOL     -0.668513
    156 O23        -0.2150   -5.8010    0.2000 o         1 MOL     -0.668513
    157 H67        -4.6000   -3.1230    0.9880 hn        1 MOL      0.222700
    158 H68        -3.6980   -4.7730    3.2850 h1        1 MOL      0.149173
    159 H69        -1.3790   -4.1980    2.4540 hc        1 MOL      0.047326
    160 H70        -2.1440   -2.9360    1.4630 hc        1 MOL      0.047326
    161 H71        -3.4010   -4.8230    0.2310 hc        1 MOL      0.017304
    162 H72        -2.6000   -5.9810    1.3430 hc        1 MOL      0.017304
    163 N14        -3.6420   -1.5380    3.6950 n         1 MOL     -0.020507
    164 C55        -3.4870   -0.5290    4.6930 c3        1 MOL     -0.366474
    165 H73        -4.1670   -0.7290    5.5210 h1        1 MOL      0.119240
    166 H74        -2.4590   -0.5340    5.0590 h1        1 MOL      0.119240
    167 H75        -3.7150    0.4460    4.2640 h1        1 MOL      0.119240
    168 H76        -4.2570   -1.3820    2.9040 hn        1 MOL      0.145324
    169 Ca1         0.5000   -3.0250   -2.4150 Ca        1 MOL      1.726735
    170 O24        -1.6510   -2.9480   -3.9780 oh        1 MOL     -0.830788
    171 H77        -2.4900   -3.1990   -3.5910 ho        1 MOL      0.395627
    172 H78        -1.8800   -2.7100   -4.8790 ho        1 MOL      0.395627
    173 O25         1.0390   -2.1790   -5.1020 oh        1 MOL     -0.830788
    174 H79         1.8350   -2.7170   -5.0940 ho        1 MOL      0.395627
    175 H80         0.4420   -2.6460   -5.6860 ho        1 MOL      0.395627
    176 O26         2.1460   -4.3250   -0.8180 oh        1 MOL     -0.830788
    177 H81         2.9280   -4.7830   -0.5090 ho        1 MOL      0.395627
    178 H82         1.5520   -4.3430   -0.0660 ho        1 MOL      0.395627
    179 O27         0.6160   -5.3060   -3.9800 oh        1 MOL     -0.830788
    180 H83        -0.2330   -5.6060   -4.3040 ho        1 MOL      0.395627
    181 H84         1.2540   -5.8470   -4.4460 ho        1 MOL      0.395627
@<TRIPOS>BOND
     1    1    2 1   
     2    1    4 1   
     3    1    5 1   
     4    1    6 1   
     5    2    3 2   
     6    2    7 1   
     7    7    8 1   
     8    7   15 1   
     9    8    9 1   
    10    8   11 1   
    11    8   16 1   
    12    9   10 2   
    13    9   19 1   
    14   11   12 1   
    15   11   17 1   
    16   11   18 1   
    17   12   13 1   
    18   12   14 1   
    19   19   20 1   
    20   19   24 1   
    21   20   21 1   
    22   20   23 1   
    23   20   25 1   
    24   21   22 2   
    25   21   29 1   
    26   23   26 1   
    27   23   27 1   
    28   23   28 1   
    29   29   30 1   
    30   29   37 1   
    31   30   31 1   
    32   30   33 1   
    33   30   38 1   
    34   31   32 2   
    35   31   41 1   
    36   33   34 1   
    37   33   39 1   
    38   33   40 1   
    39   34   35 1   
    40   34   36 1   
    41   41   42 1   
    42   41   45 1   
    43   42   43 1   
    44   42   46 1   
    45   42   47 1   
    46   43   44 2   
    47   43   48 1   
    48   48   49 1   
    49   48   56 1   
    50   49   50 1   
    51   49   52 1   
    52   49   57 1   
    53   50   51 2   
    54   50   62 1   
    55   52   53 1   
    56   52   58 1   
    57   52   59 1   
    58   53   54 1   
    59   53   55 2   
    60   54   60 1   
    61   54   61 1   
    62   62   63 1   
    63   62   66 1   
    64   63   64 1   
    65   63   67 1   
    66   63   68 1   
    67   64   65 2   
    68   64   69 1   
    69   69   70 1   
    70   69   76 1   
    71   70   71 1   
    72   70   73 1   
    73   70   77 1   
    74   71   72 2   
    75   71   83 1   
    76   73   74 1   
    77   73   75 1   
    78   73   78 1   
    79   74   80 1   
    80   74   81 1   
    81   74   82 1   
    82   75   79 1   
    83   83   84 1   
    84   83   91 1   
    85   84   85 1   
    86   84   87 1   
    87   84   92 1   
    88   85   86 2   
    89   85  102 1   
    90   87   88 1   
    91   87   89 1   
    92   87   93 1   
    93   88   90 1   
    94   88   94 1   
    95   88   95 1   
    96   89   96 1   
    97   89   97 1   
    98   89   98 1   
    99   90   99 1   
   100   90  100 1   
   101   90  101 1   
   102  102  103 1   
   103  102  110 1   
   104  103  104 1   
   105  103  106 1   
   106  103  111 1   
   107  104  105 2   
   108  104  114 1   
   109  106  107 1   
   110  106  112 1   
   111  106  113 1   
   112  107  108 1   
   113  107  109 1   
   114  114  115 1   
   115  114  125 1   
   116  115  116 1   
   117  115  118 1   
   118  115  126 1   
   119  116  117 2   
   120  116  134 1   
   121  118  119 1   
   122  118  127 1   
   123  118  128 1   
   124  119  120 ar  
   125  119  121 ar  
   126  120  122 ar  
   127  120  129 1   
   128  121  123 ar  
   129  121  130 1   
   130  122  124 ar  
   131  122  131 1   
   132  123  124 ar  
   133  123  132 1   
   134  124  133 1   
   135  134  135 1   
   136  134  140 1   
   137  135  136 1   
   138  135  138 1   
   139  135  141 1   
   140  136  137 2   
   141  136  148 1   
   142  138  139 1   
   143  138  142 1   
   144  138  143 1   
   145  139  140 1   
   146  139  144 1   
   147  139  145 1   
   148  140  146 1   
   149  140  147 1   
   150  148  149 1   
   151  148  157 1   
   152  149  150 1   
   153  149  152 1   
   154  149  158 1   
   155  150  151 2   
   156  150  163 1   
   157  152  153 1   
   158  152  159 1   
   159  152  160 1   
   160  153  154 1   
   161  153  161 1   
   162  153  162 1   
   163  154  155 1   
   164  154  156 1   
   165  163  164 1   
   166  163  168 1   
   167  164  165 1   
   168  164  166 1   
   169  164  167 1   
   170  170  171 1   
   171  170  172 1   
   172  173  174 1   
   173  173  175 1   
   174  176  177 1   
   175  176  178 1   
   176  179  180 1   
   177  179  181 1   
@<TRIPOS>SUBSTRUCTURE
     1 MOL         1 TEMP              0 ****  ****    0 ROOT
