@<TRIPOS>MOLECULE
MOL
  201   193     1     0     0
SMALL
resp


@<TRIPOS>ATOM
      1 C1         -0.9310    3.0290   -1.3730 c3        1 MOL      0.020908
      2 C2          0.2390    3.7320   -0.5870 c         1 MOL      0.552136
      3 O1          1.2830    3.1620   -0.4910 o         1 MOL     -0.510672
      4 H1         -1.8780    3.2340   -0.8740 hc        1 MOL     -0.043976
      5 H2         -0.9670    3.4120   -2.3920 hc        1 MOL     -0.043976
      6 H3         -0.7600    1.9520   -1.3960 hc        1 MOL     -0.043976
      7 N1          0.0370    4.8860   -0.0350 n         1 MOL     -0.397046
      8 C3          0.9040    5.6530    0.8730 c3        1 MOL      0.204489
      9 C4          2.3070    5.7460    0.2930 c         1 MOL      0.440236
     10 O2          3.3230    5.7540    1.0700 o         1 MOL     -0.391991
     11 C5          0.7250    5.1020    2.3570 c3        1 MOL     -0.391988
     12 C6          1.4950    5.9970    3.2980 c         1 MOL      0.769299
     13 O3          1.1460    7.2180    3.4060 o         1 MOL     -0.653143
     14 O4          2.4040    5.5280    3.9690 o         1 MOL     -0.653143
     15 H4         -0.8530    5.3470   -0.2010 hn        1 MOL      0.244991
     16 H5          0.4370    6.6270    0.9190 h1        1 MOL      0.017506
     17 H6          1.0430    4.0670    2.4700 hc        1 MOL      0.099344
     18 H7         -0.3550    5.1880    2.4460 hc        1 MOL      0.099344
     19 N2          2.5280    6.0120   -1.0300 n         1 MOL     -0.479595
     20 C7          3.7530    5.7870   -1.8270 c3        1 MOL     -0.236097
     21 C8          4.9030    6.6210   -1.3360 c         1 MOL      0.684816
     22 O5          4.7660    7.8120   -1.1850 o         1 MOL     -0.573703
     23 C9          3.5050    5.8400   -3.3500 c3        1 MOL      0.131222
     24 C10         3.0070    7.2220   -3.7420 c3        1 MOL      0.323859
     25 C11         2.6820    4.6180   -3.8600 c3        1 MOL     -0.419827
     26 C12         3.0950    7.3990   -5.2510 c3        1 MOL     -0.242120
     27 H8          1.6780    6.1250   -1.5770 hn        1 MOL      0.202687
     28 H9          3.8880    4.7520   -1.5290 h1        1 MOL      0.229502
     29 H10         4.4610    5.7630   -3.8640 hc        1 MOL      0.065291
     30 H11         3.6300    7.9970   -3.2940 hc        1 MOL     -0.056580
     31 H12         1.9840    7.4310   -3.4560 hc        1 MOL     -0.056580
     32 H13         3.0640    3.7320   -3.3410 hc        1 MOL      0.111349
     33 H14         1.6670    4.7470   -3.5120 hc        1 MOL      0.111349
     34 H15         2.7140    4.5200   -4.9460 hc        1 MOL      0.111349
     35 H16         2.5670    8.3340   -5.4400 hc        1 MOL      0.021427
     36 H17         4.1660    7.4110   -5.4630 hc        1 MOL      0.021427
     37 H18         2.5850    6.6170   -5.8080 hc        1 MOL      0.021427
     38 N3          6.1130    6.1010   -1.1020 n         1 MOL     -0.610627
     39 C13         6.5220    4.7320   -1.0620 c3        1 MOL     -0.006185
     40 C14         7.2660    4.4420    0.3100 c         1 MOL      0.654639
     41 O6          8.4270    4.7550    0.4370 o         1 MOL     -0.515893
     42 C15         7.4510    4.4910   -2.2530 c3        1 MOL     -0.148045
     43 C16         8.1660    3.1980   -2.3790 c         1 MOL      0.693645
     44 O7          9.2870    3.0840   -2.9640 o         1 MOL     -0.636367
     45 O8          7.7470    2.2010   -1.7260 o         1 MOL     -0.636367
     46 H19         6.8910    6.7180   -0.8920 hn        1 MOL      0.334296
     47 H20         5.7470    3.9680   -1.1100 h1        1 MOL      0.049045
     48 H21         8.1570    5.3190   -2.2590 hc        1 MOL      0.019034
     49 H22         6.8840    4.6390   -3.1740 hc        1 MOL      0.019034
     50 N4          6.5640    3.7270    1.2350 n         1 MOL     -0.430384
     51 C17         7.1380    3.5850    2.6110 c3        1 MOL     -0.130258
     52 C18         7.4340    2.1490    2.9770 c         1 MOL      0.629623
     53 O9          8.5590    1.8550    3.3010 o         1 MOL     -0.569678
     54 H23         5.5980    3.5380    1.0400 hn        1 MOL      0.274062
     55 H24         6.3780    3.9480    3.3060 h1        1 MOL      0.097106
     56 H25         7.9960    4.2460    2.7040 h1        1 MOL      0.097106
     57 N5          6.4760    1.2650    2.8530 n         1 MOL     -0.573580
     58 C19         6.5170   -0.0720    3.5000 c3        1 MOL      0.050162
     59 C20         7.4150   -1.0170    2.6880 c         1 MOL      0.448625
     60 O10         8.0170   -1.9590    3.2430 o         1 MOL     -0.558625
     61 C21         5.0700   -0.5220    3.5710 c3        1 MOL      0.182692
     62 C22         4.2920   -0.3540    2.2580 c         1 MOL      0.611078
     63 O11         3.7580    0.8210    2.0350 o         1 MOL     -0.646146
     64 O12         4.0540   -1.3730    1.5570 o         1 MOL     -0.646146
     65 H26         5.5780    1.6680    2.6550 hn        1 MOL      0.284882
     66 H27         6.9780   -0.0860    4.4830 h1        1 MOL      0.056630
     67 H28         4.5130   -0.0130    4.3610 hc        1 MOL     -0.061408
     68 H29         5.1160   -1.5450    3.9610 hc        1 MOL     -0.061408
     69 N6          7.4290   -0.8960    1.3300 n         1 MOL     -0.162881
     70 C23         8.0690   -1.8880    0.4050 c3        1 MOL     -0.302860
     71 C24         7.2890   -3.2190    0.3330 c         1 MOL      0.501781
     72 O13         7.8450   -4.0970   -0.2880 o         1 MOL     -0.585850
     73 H30         6.7770   -0.2470    0.9270 hn        1 MOL      0.239399
     74 H31         9.0680   -2.1120    0.7700 h1        1 MOL      0.155097
     75 H32         8.2570   -1.4550   -0.5760 h1        1 MOL      0.155097
     76 N7          6.0740   -3.3420    0.9210 n         1 MOL     -0.049074
     77 C25         5.1880   -4.5900    1.0160 c3        1 MOL      0.143370
     78 C26         5.0410   -5.3650   -0.3090 c         1 MOL      0.430398
     79 O14         4.9840   -6.5630   -0.2630 o         1 MOL     -0.507913
     80 C27         5.5210   -5.3940    2.3030 c3        1 MOL      0.070042
     81 C28         5.4230   -4.5290    3.6110 c3        1 MOL      0.025939
     82 C29         5.1520   -5.3590    4.8280 c         1 MOL      0.670113
     83 N8          5.0500   -4.7950    5.9670 n         1 MOL     -0.783682
     84 O15         4.9910   -6.5490    4.8510 o         1 MOL     -0.599861
     85 H33         5.6460   -2.5020    1.2720 hn        1 MOL     -0.008912
     86 H34         4.1730   -4.2320    1.1790 h1        1 MOL      0.062739
     87 H35         6.5300   -5.7860    2.2930 hc        1 MOL     -0.031752
     88 H36         4.8290   -6.2320    2.3090 hc        1 MOL     -0.031752
     89 H37         4.5550   -3.8580    3.6370 hc        1 MOL     -0.033090
     90 H38         6.3610   -3.9930    3.7370 hc        1 MOL     -0.033090
     91 H39         5.2020   -3.8010    6.0320 hn        1 MOL      0.339550
     92 H40         5.1200   -5.3890    6.7780 hn        1 MOL      0.339550
     93 N9          5.0090   -4.6880   -1.4610 n         1 MOL     -0.255417
     94 C30         4.7400   -5.2030   -2.8040 c3        1 MOL     -0.225472
     95 C31         3.4130   -4.6660   -3.4150 c         1 MOL      0.666959
     96 O16         2.7880   -5.1740   -4.3040 o         1 MOL     -0.605831
     97 C32         5.8570   -5.1030   -3.8000 c3        1 MOL      0.417768
     98 C33         5.9590   -3.6340   -4.3070 c3        1 MOL     -0.287917
     99 C34         7.2330   -5.6690   -3.4470 c3        1 MOL     -0.287917
    100 H41         5.0820   -3.6730   -1.4040 hn        1 MOL      0.184357
    101 H42         4.4440   -6.2360   -2.6210 h1        1 MOL      0.103010
    102 H43         5.4580   -5.6310   -4.6710 hc        1 MOL     -0.091745
    103 H44         6.1290   -2.9380   -3.4800 hc        1 MOL      0.056192
    104 H45         6.8290   -3.5880   -4.9650 hc        1 MOL      0.056192
    105 H46         5.1100   -3.3740   -4.9410 hc        1 MOL      0.056192
    106 H47         7.6240   -5.0740   -2.6190 hc        1 MOL      0.056192
    107 H48         7.1220   -6.7130   -3.1340 hc        1 MOL      0.056192
    108 H49         7.8740   -5.6840   -4.3230 hc        1 MOL      0.056192
    109 N10         2.7910   -3.7950   -2.6440 n         1 MOL     -0.444123
    110 C35         1.4720   -3.2570   -2.8460 c3        1 MOL      0.217449
    111 C36         0.7110   -3.1770   -1.4550 c         1 MOL      0.520592
    112 O17         1.1930   -3.7060   -0.4410 o         1 MOL     -0.545701
    113 C37         1.6260   -1.8020   -3.4220 c3        1 MOL     -0.218450
    114 C38         0.4500   -1.3790   -4.2610 c         1 MOL      0.610263
    115 N11         0.5490   -1.1800   -5.5320 n         1 MOL     -0.765601
    116 O18        -0.6550   -1.1720   -3.8110 o         1 MOL     -0.509977
    117 H50         3.3050   -3.4650   -1.8430 hn        1 MOL      0.240210
    118 H51         0.9500   -3.8950   -3.5670 h1        1 MOL      0.053459
    119 H52         2.4690   -1.7890   -4.1090 hc        1 MOL      0.079675
    120 H53         1.8070   -1.0700   -2.6370 hc        1 MOL      0.079675
    121 H54         1.4260   -1.4490   -5.9400 hn        1 MOL      0.356419
    122 H55        -0.1960   -0.7860   -6.0920 hn        1 MOL      0.356419
    123 N12        -0.5270   -2.7170   -1.3680 n         1 MOL     -0.562460
    124 C39        -1.3950   -2.7180   -0.1940 c3        1 MOL      0.330984
    125 C40        -2.7180   -3.2840   -0.6800 c         1 MOL      0.594310
    126 O19        -3.1950   -2.7380   -1.6890 o         1 MOL     -0.543554
    127 C41        -1.5730   -1.2660    0.3520 c3        1 MOL     -0.225494
    128 C42        -2.2210   -1.2750    1.7310 ca        1 MOL      0.010521
    129 C43        -3.6240   -1.0580    1.7700 ca        1 MOL     -0.151610
    130 C44        -1.4630   -1.4250    2.9270 ca        1 MOL     -0.151610
    131 C45        -4.2620   -0.8390    3.0180 ca        1 MOL     -0.274665
    132 C46        -2.1490   -1.3550    4.1950 ca        1 MOL     -0.274665
    133 C47        -3.5060   -0.9630    4.2360 ca        1 MOL      0.340345
    134 O20        -4.1390   -0.8950    5.4160 oh        1 MOL     -0.526693
    135 H56        -0.9200   -2.2610   -2.1800 hn        1 MOL      0.196598
    136 H57        -0.9270   -3.3030    0.5880 h1        1 MOL      0.030538
    137 H58        -2.1630   -0.6640   -0.3430 hc        1 MOL      0.139310
    138 H59        -0.6680   -0.6590    0.4460 hc        1 MOL      0.139310
    139 H60        -4.1900   -0.8520    0.8650 ha        1 MOL      0.168041
    140 H61        -0.3840   -1.5090    2.9720 ha        1 MOL      0.168041
    141 H62        -5.3220   -0.6280    3.0540 ha        1 MOL      0.156640
    142 H63        -1.6200   -1.2690    5.1340 ha        1 MOL      0.156640
    143 H64        -5.0970   -0.8810    5.3500 ho        1 MOL      0.382717
    144 N13        -3.4610   -4.1560    0.0630 n         1 MOL     -0.838936
    145 C48        -4.8960   -4.4860   -0.2760 c3        1 MOL      0.467789
    146 C49        -5.9090   -3.9080    0.7310 c         1 MOL      0.502855
    147 O21        -5.8410   -4.2650    1.8920 o         1 MOL     -0.535534
    148 C50        -4.9370   -6.0080   -0.3650 c3        1 MOL      0.354640
    149 C51        -6.1240   -6.6680   -0.9500 c3        1 MOL     -0.317232
    150 C52        -7.3160   -6.8720   -0.0090 c         1 MOL      0.686596
    151 O22        -7.2260   -7.7290    0.8910 o         1 MOL     -0.655753
    152 O23        -8.3250   -6.0880   -0.0580 o         1 MOL     -0.655753
    153 H65        -2.9970   -4.4460    0.9150 hn        1 MOL      0.346999
    154 H66        -5.0040   -4.1130   -1.2920 h1        1 MOL     -0.027488
    155 H67        -4.8580   -6.3350    0.6720 hc        1 MOL     -0.084090
    156 H68        -4.0540   -6.4080   -0.8650 hc        1 MOL     -0.084090
    157 H69        -5.7900   -7.6500   -1.2800 hc        1 MOL      0.026395
    158 H70        -6.3830   -6.0890   -1.8400 hc        1 MOL      0.026395
    159 N14        -6.8900   -3.0810    0.3350 n         1 MOL     -0.398869
    160 C53        -6.9460   -2.1850   -0.8830 c3        1 MOL     -0.035631
    161 C54        -7.1130   -2.7230   -2.3550 c         1 MOL      0.407860
    162 O24        -8.1160   -3.4530   -2.5650 o         1 MOL     -0.510635
    163 C55        -7.9520   -1.0750   -0.7050 c3        1 MOL      0.001018
    164 C56        -7.7940   -0.2070    0.5940 c3        1 MOL     -0.574301
    165 C57        -8.6360    1.0660    0.4720 c         1 MOL      0.690907
    166 O25        -9.8720    1.0120    0.8010 o         1 MOL     -0.618100
    167 O26        -8.1970    2.1480   -0.0520 o         1 MOL     -0.618100
    168 H71        -7.5180   -2.8540    1.0900 hn        1 MOL      0.288356
    169 H72        -5.9610   -1.7250   -0.8650 h1        1 MOL      0.033053
    170 H73        -8.9360   -1.5610   -0.7440 hc        1 MOL      0.084405
    171 H74        -7.8860   -0.4420   -1.5940 hc        1 MOL      0.084405
    172 H75        -6.7340    0.0200    0.7550 hc        1 MOL      0.132282
    173 H76        -8.0850   -0.7620    1.4810 hc        1 MOL      0.132282
    174 N15        -6.2310   -2.4100   -3.2900 n         1 MOL     -0.243432
    175 C58        -6.1820   -2.8580   -4.7030 c3        1 MOL     -0.311917
    176 H77        -5.8170   -2.0450   -5.3290 h1        1 MOL      0.132410
    177 H78        -5.5110   -3.7130   -4.7900 h1        1 MOL      0.132410
    178 H79        -7.1820   -3.1470   -5.0290 h1        1 MOL      0.132410
    179 H80        -5.4220   -1.8910   -2.9600 hn        1 MOL      0.233331
    180 Ca1       -10.5510    3.4870    0.5260 Ca        1 MOL      1.709768
    181 O27        -8.9370    4.2390    2.4720 oh        1 MOL     -0.848983
    182 O28       -11.5400    5.2160    2.3510 oh        1 MOL     -0.848983
    183 H81        -8.3180    4.9430    2.3080 ho        1 MOL      0.371088
    184 H82       -12.4490    5.5040    2.2910 ho        1 MOL      0.371088
    185 H83        -9.0060    4.2000    3.4280 ho        1 MOL      0.371088
    186 H84       -11.0970    5.9050    2.8500 ho        1 MOL      0.371088
    187 O29       -12.9030    4.5340   -0.3720 oh        1 MOL     -0.848983
    188 H85       -12.8530    5.2650   -0.9930 ho        1 MOL      0.371088
    189 H86       -13.7170    4.0880   -0.5870 ho        1 MOL      0.371088
    190 O30       -12.0960    2.3550    2.4750 oh        1 MOL     -0.848983
    191 H87       -12.7640    2.8270    2.9710 ho        1 MOL      0.371088
    192 H88       -12.2190    1.4400    2.7320 ho        1 MOL      0.371088
    193 O31        -8.9530    5.4660   -0.3760 oh        1 MOL     -0.848983
    194 H89        -8.7100    6.3880   -0.2930 ho        1 MOL      0.371088
    195 H90        -8.5000    5.1730   -1.1640 ho        1 MOL      0.371088
    196 O32       -10.2400    3.5050   -2.1280 oh        1 MOL     -0.848983
    197 H91        -9.4210    3.8160   -2.5320 ho        1 MOL      0.371088
    198 H92       -10.7280    3.1310   -2.8550 ho        1 MOL      0.371088
    199 O33       -12.2020    1.5280   -0.6480 oh        1 MOL     -0.848983
    200 H93       -11.5560    0.8600   -0.4210 ho        1 MOL      0.371088
    201 H94       -13.0150    1.0420   -0.7770 ho        1 MOL      0.371088
@<TRIPOS>BOND
     1    1    2 1   
     2    1    4 1   
     3    1    5 1   
     4    1    6 1   
     5    2    3 2   
     6    2    7 1   
     7    7    8 1   
     8    7   15 1   
     9    8    9 1   
    10    8   11 1   
    11    8   16 1   
    12    9   10 2   
    13    9   19 1   
    14   11   12 1   
    15   11   17 1   
    16   11   18 1   
    17   12   13 1   
    18   12   14 1   
    19   19   20 1   
    20   19   27 1   
    21   20   21 1   
    22   20   23 1   
    23   20   28 1   
    24   21   22 2   
    25   21   38 1   
    26   23   24 1   
    27   23   25 1   
    28   23   29 1   
    29   24   26 1   
    30   24   30 1   
    31   24   31 1   
    32   25   32 1   
    33   25   33 1   
    34   25   34 1   
    35   26   35 1   
    36   26   36 1   
    37   26   37 1   
    38   38   39 1   
    39   38   46 1   
    40   39   40 1   
    41   39   42 1   
    42   39   47 1   
    43   40   41 2   
    44   40   50 1   
    45   42   43 1   
    46   42   48 1   
    47   42   49 1   
    48   43   44 1   
    49   43   45 1   
    50   50   51 1   
    51   50   54 1   
    52   51   52 1   
    53   51   55 1   
    54   51   56 1   
    55   52   53 2   
    56   52   57 1   
    57   57   58 1   
    58   57   65 1   
    59   58   59 1   
    60   58   61 1   
    61   58   66 1   
    62   59   60 2   
    63   59   69 1   
    64   61   62 1   
    65   61   67 1   
    66   61   68 1   
    67   62   63 1   
    68   62   64 1   
    69   69   70 1   
    70   69   73 1   
    71   70   71 1   
    72   70   74 1   
    73   70   75 1   
    74   71   72 2   
    75   71   76 1   
    76   76   77 1   
    77   76   85 1   
    78   77   78 1   
    79   77   80 1   
    80   77   86 1   
    81   78   79 2   
    82   78   93 1   
    83   80   81 1   
    84   80   87 1   
    85   80   88 1   
    86   81   82 1   
    87   81   89 1   
    88   81   90 1   
    89   82   83 1   
    90   82   84 2   
    91   83   91 1   
    92   83   92 1   
    93   93   94 1   
    94   93  100 1   
    95   94   95 1   
    96   94   97 1   
    97   94  101 1   
    98   95   96 2   
    99   95  109 1   
   100   97   98 1   
   101   97   99 1   
   102   97  102 1   
   103   98  103 1   
   104   98  104 1   
   105   98  105 1   
   106   99  106 1   
   107   99  107 1   
   108   99  108 1   
   109  109  110 1   
   110  109  117 1   
   111  110  111 1   
   112  110  113 1   
   113  110  118 1   
   114  111  112 2   
   115  111  123 1   
   116  113  114 1   
   117  113  119 1   
   118  113  120 1   
   119  114  115 1   
   120  114  116 2   
   121  115  121 1   
   122  115  122 1   
   123  123  124 1   
   124  123  135 1   
   125  124  125 1   
   126  124  127 1   
   127  124  136 1   
   128  125  126 2   
   129  125  144 1   
   130  127  128 1   
   131  127  137 1   
   132  127  138 1   
   133  128  129 ar  
   134  128  130 ar  
   135  129  131 ar  
   136  129  139 1   
   137  130  132 ar  
   138  130  140 1   
   139  131  133 ar  
   140  131  141 1   
   141  132  133 ar  
   142  132  142 1   
   143  133  134 1   
   144  134  143 1   
   145  144  145 1   
   146  144  153 1   
   147  145  146 1   
   148  145  148 1   
   149  145  154 1   
   150  146  147 2   
   151  146  159 1   
   152  148  149 1   
   153  148  155 1   
   154  148  156 1   
   155  149  150 1   
   156  149  157 1   
   157  149  158 1   
   158  150  151 1   
   159  150  152 1   
   160  159  160 1   
   161  159  168 1   
   162  160  161 1   
   163  160  163 1   
   164  160  169 1   
   165  161  162 2   
   166  161  174 1   
   167  163  164 1   
   168  163  170 1   
   169  163  171 1   
   170  164  165 1   
   171  164  172 1   
   172  164  173 1   
   173  165  166 1   
   174  165  167 1   
   175  174  175 1   
   176  174  179 1   
   177  175  176 1   
   178  175  177 1   
   179  175  178 1   
   180  181  183 1   
   181  181  185 1   
   182  182  184 1   
   183  182  186 1   
   184  187  188 1   
   185  187  189 1   
   186  190  191 1   
   187  190  192 1   
   188  193  194 1   
   189  193  195 1   
   190  196  197 1   
   191  196  198 1   
   192  199  200 1   
   193  199  201 1   
@<TRIPOS>SUBSTRUCTURE
     1 MOL         1 TEMP              0 ****  ****    0 ROOT
