@<TRIPOS>MOLECULE
MOL
  182   178     1     0     0
SMALL
resp


@<TRIPOS>ATOM
      1 C1          1.9300   -5.9970    5.4540 c3        1 MOL     -0.349174
      2 C2          1.6390   -5.1450    4.1470 c         1 MOL      0.725767
      3 O1          0.5500   -5.1600    3.5450 o         1 MOL     -0.619543
      4 H1          2.2930   -6.9840    5.1700 hc        1 MOL      0.107081
      5 H2          2.6860   -5.4920    6.0570 hc        1 MOL      0.107081
      6 H3          1.0120   -6.1010    6.0330 hc        1 MOL      0.107081
      7 N1          2.6640   -4.4280    3.6740 n         1 MOL     -0.577408
      8 C3          2.8060   -3.7030    2.3830 c3        1 MOL     -0.029581
      9 C4          3.1710   -4.6310    1.1530 c         1 MOL      0.706682
     10 O2          4.1650   -5.2770    1.1680 o         1 MOL     -0.561666
     11 C5          3.9070   -2.5720    2.6050 c3        1 MOL      0.038285
     12 C6          3.9300   -1.5720    1.4100 c         1 MOL      0.359484
     13 O3          4.2740   -0.3690    1.4590 o         1 MOL     -0.584540
     14 O4          3.4280   -1.9770    0.3330 o         1 MOL     -0.584540
     15 H4          3.5160   -4.3980    4.2240 hn        1 MOL      0.313481
     16 H5          1.9300   -3.1110    2.1220 h1        1 MOL     -0.053085
     17 H6          4.8930   -3.0210    2.7140 hc        1 MOL      0.040587
     18 H7          3.6750   -1.9680    3.4730 hc        1 MOL      0.040587
     19 N2          2.3490   -4.5690    0.1460 n         1 MOL     -0.388921
     20 C7          2.4290   -5.3070   -1.1650 c3        1 MOL     -0.139316
     21 C8          3.5240   -4.8810   -2.0940 c         1 MOL      0.555049
     22 O5          3.8670   -5.5900   -3.0110 o         1 MOL     -0.538210
     23 C9          1.1220   -5.1030   -2.0120 c3        1 MOL     -0.088094
     24 C10        -0.1300   -5.6920   -1.3220 c3        1 MOL     -0.033202
     25 C11        -1.3820   -5.1760   -1.9320 c3        1 MOL     -0.073020
     26 C12        -1.8230   -3.8070   -1.3690 c3        1 MOL      0.078451
     27 N3         -3.0610   -3.3600   -2.0950 n4        1 MOL     -0.228870
     28 H8          1.5550   -3.9600    0.2480 hn        1 MOL      0.266030
     29 H9          2.5830   -6.3710   -1.0060 h1        1 MOL      0.134370
     30 H10         1.3060   -5.5990   -2.9600 hc        1 MOL      0.059580
     31 H11         1.0310   -4.0260   -2.1660 hc        1 MOL      0.059580
     32 H12        -0.2390   -5.4710   -0.2640 hc        1 MOL      0.055012
     33 H13        -0.2190   -6.7760   -1.3760 hc        1 MOL      0.055012
     34 H14        -2.1460   -5.9250   -1.7110 hc        1 MOL      0.042509
     35 H15        -1.2450   -5.0660   -3.0080 hc        1 MOL      0.042509
     36 H16        -1.0720   -3.0400   -1.4660 hx        1 MOL      0.053726
     37 H17        -2.0980   -3.9250   -0.3120 hx        1 MOL      0.053726
     38 H18        -2.7940   -2.8520   -2.9230 hn        1 MOL      0.246394
     39 H19        -3.6310   -4.1260   -2.4230 hn        1 MOL      0.246394
     40 H20        -3.5940   -2.6860   -1.5650 hn        1 MOL      0.246394
     41 N4          4.2570   -3.7630   -1.8180 n         1 MOL     -0.234911
     42 C13         5.4150   -3.3430   -2.6040 c3        1 MOL     -0.246749
     43 C14         6.5050   -2.6400   -1.7400 c         1 MOL      0.451833
     44 O6          7.6230   -2.4710   -2.2380 o         1 MOL     -0.547651
     45 C15         5.1090   -2.4840   -3.7950 c3        1 MOL     -0.178138
     46 C16         4.0430   -1.3510   -3.5920 c         1 MOL      0.717090
     47 O7          3.9290   -0.8060   -2.4710 o         1 MOL     -0.709725
     48 O8          3.4320   -1.0340   -4.6260 o         1 MOL     -0.709725
     49 H21         3.9200   -3.2090   -1.0520 hn        1 MOL      0.191755
     50 H22         5.9200   -4.2500   -2.9350 h1        1 MOL      0.174902
     51 H23         4.7380   -3.1720   -4.5650 hc        1 MOL      0.097023
     52 H24         5.9590   -1.9850   -4.2650 hc        1 MOL      0.097023
     53 N5          6.2150   -2.1690   -0.5360 n         1 MOL     -0.012111
     54 C17         7.1380   -1.4210    0.3170 c3        1 MOL     -0.335415
     55 C18         7.3030    0.0660    0.0180 c         1 MOL      0.639351
     56 O9          7.9400    0.8350    0.7360 o         1 MOL     -0.581941
     57 H25         5.3040   -2.4280   -0.2050 hn        1 MOL      0.068307
     58 H26         8.1470   -1.8230    0.2060 h1        1 MOL      0.141869
     59 H27         6.8420   -1.5310    1.3670 h1        1 MOL      0.141869
     60 N6          6.7070    0.5610   -1.0480 n         1 MOL     -0.276130
     61 C19         6.7670    1.9600   -1.4430 c3        1 MOL     -0.026535
     62 C20         5.4860    2.6140   -0.9580 c         1 MOL      0.624191
     63 O10         4.4580    2.0240   -0.7750 o         1 MOL     -0.550014
     64 C21         6.8510    1.8730   -2.9330 c3        1 MOL     -0.100589
     65 C22         6.9970    3.1620   -3.7240 c         1 MOL      0.573651
     66 N7          7.9150    3.9590   -3.3970 n         1 MOL     -0.737415
     67 O11         6.2220    3.5570   -4.6200 o         1 MOL     -0.564978
     68 H28         6.2570   -0.0510   -1.7080 hn        1 MOL      0.181264
     69 H29         7.6450    2.4910   -1.0630 h1        1 MOL      0.046993
     70 H30         5.9150    1.5600   -3.3970 hc        1 MOL      0.073791
     71 H31         7.6470    1.2000   -3.2530 hc        1 MOL      0.073791
     72 H32         8.5400    3.8150   -2.6220 hn        1 MOL      0.356668
     73 H33         7.9290    4.7690   -3.9880 hn        1 MOL      0.356668
     74 N8          5.5330    3.9520   -0.8220 n         1 MOL     -0.382648
     75 C23         4.4340    4.8780   -0.5780 c3        1 MOL     -0.174804
     76 C24         3.6690    4.6100    0.7180 c         1 MOL      0.595755
     77 O12         4.2820    4.1760    1.7190 o         1 MOL     -0.504943
     78 H34         6.4780    4.3180   -0.8670 hn        1 MOL      0.269107
     79 H35         3.7600    4.9280   -1.4300 h1        1 MOL      0.115034
     80 H36         4.7820    5.8960   -0.4170 h1        1 MOL      0.115034
     81 N9          2.4080    4.9020    0.7590 n         1 MOL     -0.523956
     82 C25         1.4470    4.4950    1.7790 c3        1 MOL      0.226520
     83 C26         1.3690    2.9520    1.9640 c         1 MOL      0.501203
     84 O13         1.8470    2.1410    1.1460 o         1 MOL     -0.545879
     85 C27        -0.0030    4.9120    1.2930 c3        1 MOL     -0.126198
     86 C28        -0.1360    6.3370    1.0400 ca        1 MOL      0.088256
     87 C29        -0.7700    6.7920   -0.1460 ca        1 MOL     -0.197673
     88 C30         0.3980    7.2700    1.9310 ca        1 MOL     -0.197673
     89 C31        -0.9230    8.1660   -0.3960 ca        1 MOL     -0.239788
     90 C32         0.2580    8.6870    1.6920 ca        1 MOL     -0.239788
     91 C33        -0.3610    9.1390    0.4820 ca        1 MOL      0.315486
     92 O14        -0.5280   10.4290    0.2170 oh        1 MOL     -0.447409
     93 H37         2.0000    5.0430   -0.1470 hn        1 MOL      0.267529
     94 H38         1.7140    4.9630    2.7230 h1        1 MOL      0.069121
     95 H39        -0.8130    4.5620    1.9370 hc        1 MOL      0.052511
     96 H40        -0.1950    4.3770    0.3640 hc        1 MOL      0.052511
     97 H41        -1.2540    6.0510   -0.7780 ha        1 MOL      0.138634
     98 H42         0.7840    6.9120    2.8770 ha        1 MOL      0.138634
     99 H43        -1.5060    8.5370   -1.2170 ha        1 MOL      0.160084
    100 H44         0.5770    9.4690    2.3650 ha        1 MOL      0.160084
    101 H45        -0.8620   10.5740   -0.6750 ho        1 MOL      0.365896
    102 N10         0.7380    2.4140    2.9930 n         1 MOL     -0.704750
    103 C34         0.5470    1.0240    3.4060 c3        1 MOL      0.418572
    104 C35         0.0740    0.2010    2.2350 c         1 MOL      0.418357
    105 O15         0.8470   -0.3970    1.4920 o         1 MOL     -0.399156
    106 C36         1.7510    0.4060    4.2090 c3        1 MOL      0.155769
    107 C37         1.4580   -1.0130    4.7130 c3        1 MOL     -0.128227
    108 C38         2.3320    1.4070    5.2650 c3        1 MOL     -0.531767
    109 C39         0.2110   -1.2110    5.6400 c3        1 MOL     -0.173970
    110 H46         0.3450    3.1140    3.6010 hn        1 MOL      0.295548
    111 H47        -0.2890    1.0060    4.1070 h1        1 MOL     -0.022746
    112 H48         2.4430    0.3070    3.3730 hc        1 MOL      0.059126
    113 H49         2.2780   -1.4700    5.2660 hc        1 MOL      0.076408
    114 H50         1.3130   -1.6670    3.8550 hc        1 MOL      0.076408
    115 H51         2.9580    2.0990    4.7100 hc        1 MOL      0.149108
    116 H52         1.5140    1.8820    5.8100 hc        1 MOL      0.149108
    117 H53         3.0280    0.9850    5.9960 hc        1 MOL      0.149108
    118 H54        -0.7120   -0.9120    5.1360 hc        1 MOL      0.041451
    119 H55         0.0570   -2.2430    5.9350 hc        1 MOL      0.041451
    120 H56         0.3600   -0.6390    6.5620 hc        1 MOL      0.041451
    121 N11        -1.1830   -0.2620    2.3030 n         1 MOL     -0.644124
    122 C40        -1.6910   -1.3660    1.4860 c3        1 MOL      0.376220
    123 C41        -3.0750   -1.1390    0.9330 c         1 MOL      0.420046
    124 O16        -3.6300   -2.0190    0.2660 o         1 MOL     -0.520696
    125 C42        -1.5850   -2.6230    2.4340 c3        1 MOL     -0.047541
    126 O17        -1.0350   -3.6800    1.7120 oh        1 MOL     -0.521843
    127 H57        -1.7700    0.0500    3.0600 hn        1 MOL      0.314479
    128 H58        -1.0220   -1.5280    0.6350 h1        1 MOL     -0.009158
    129 H59        -2.6170   -2.8520    2.7250 h1        1 MOL      0.077527
    130 H60        -0.9150   -2.3930    3.2620 h1        1 MOL      0.077527
    131 H61        -0.5840   -4.2710    2.3180 ho        1 MOL      0.425731
    132 N12        -3.7760   -0.0150    1.0750 n         1 MOL     -0.462259
    133 C43        -5.0690    0.1970    0.4720 c3        1 MOL      0.139438
    134 C44        -4.9860    0.5540   -1.0270 c         1 MOL      0.636298
    135 O18        -3.9310    1.1240   -1.4090 o         1 MOL     -0.614197
    136 C45        -5.8300    1.3050    1.3060 c3        1 MOL      0.012724
    137 H62        -3.4100    0.7650    1.5930 hn        1 MOL      0.262787
    138 H63        -5.5770   -0.7640    0.5140 h1        1 MOL      0.085873
    139 H64        -5.3520    2.2570    1.0850 hc        1 MOL      0.005332
    140 H65        -6.8410    1.3850    0.9090 hc        1 MOL      0.005332
    141 H66        -5.6950    1.0680    2.3620 hc        1 MOL      0.005332
    142 N13        -5.8930    0.3690   -1.9120 n         1 MOL     -0.742000
    143 C46        -7.2570   -0.2030   -1.8120 c3        1 MOL      0.639051
    144 C47        -8.3360    0.8250   -2.0250 c         1 MOL      0.404134
    145 O19        -8.1120    1.7770   -2.7800 o         1 MOL     -0.542516
    146 C48        -7.3830   -1.4850   -2.6140 c3        1 MOL     -0.587699
    147 H67        -5.7140    0.8910   -2.7640 hn        1 MOL      0.354829
    148 H68        -7.3320   -0.5510   -0.7740 h1        1 MOL     -0.117081
    149 H69        -8.4120   -1.8320   -2.6260 hc        1 MOL      0.158865
    150 H70        -7.1640   -1.2340   -3.6490 hc        1 MOL      0.158865
    151 H71        -6.6950   -2.2180   -2.1840 hc        1 MOL      0.158865
    152 N14        -9.5510    0.7440   -1.4570 n         1 MOL     -0.513258
    153 C49       -10.0360   -0.3100   -0.5850 c3        1 MOL      0.154283
    154 C50        -9.6420   -0.1310    0.8850 c         1 MOL      0.439703
    155 O20        -9.2360   -1.1700    1.4800 o         1 MOL     -0.529306
    156 C51       -11.5710   -0.3350   -0.7110 c3        1 MOL      0.080369
    157 C52       -12.1460   -0.9500   -2.0170 c3        1 MOL     -0.244148
    158 C53       -13.6810   -0.9140   -2.0080 c         1 MOL      0.759620
    159 O21       -14.3640   -1.8830   -1.7900 o         1 MOL     -0.686326
    160 O22       -14.2590    0.1400   -2.4110 o         1 MOL     -0.686326
    161 H72       -10.1040    1.5680   -1.6520 hn        1 MOL      0.354865
    162 H73        -9.7730   -1.3490   -0.8080 h1        1 MOL      0.036683
    163 H74       -11.8990    0.6990   -0.6380 hc        1 MOL     -0.015936
    164 H75       -12.0200   -0.8660    0.1310 hc        1 MOL     -0.015936
    165 H76       -11.8440   -1.9850   -2.1570 hc        1 MOL      0.032779
    166 H77       -11.7990   -0.3980   -2.9010 hc        1 MOL      0.032779
    167 N15        -9.6700    1.1280    1.3730 n         1 MOL     -0.351046
    168 C54        -9.2300    1.5900    2.7660 c3        1 MOL     -0.240754
    169 H78        -8.1420    1.6340    2.8070 h1        1 MOL      0.127393
    170 H79        -9.6410    2.5800    2.9670 h1        1 MOL      0.127393
    171 H80        -9.5940    0.8870    3.5140 h1        1 MOL      0.127393
    172 H81       -10.0390    1.8060    0.7240 hn        1 MOL      0.268852
    173 Ca1         2.4610    0.2120   -0.6390 Ca        1 MOL      1.645754
    174 O23         2.1950    1.4000   -3.1160 oh        1 MOL     -0.847619
    175 H82         1.6050    1.4880   -3.8690 ho        1 MOL      0.413050
    176 H83         2.7990    0.6990   -3.3780 ho        1 MOL      0.413050
    177 O24        -0.1420    1.4300   -1.0250 oh        1 MOL     -0.847619
    178 H84        -0.7170    1.9180   -0.4450 ho        1 MOL      0.413050
    179 H85        -0.2510    1.8520   -1.8780 ho        1 MOL      0.413050
    180 O25         0.7230   -1.3610   -1.7660 oh        1 MOL     -0.847619
    181 H86         0.6850   -1.7230   -2.6540 ho        1 MOL      0.413050
    182 H87        -0.0960   -0.8570   -1.6830 ho        1 MOL      0.413050
@<TRIPOS>BOND
     1    1    2 1   
     2    1    4 1   
     3    1    5 1   
     4    1    6 1   
     5    2    3 2   
     6    2    7 1   
     7    7    8 1   
     8    7   15 1   
     9    8    9 1   
    10    8   11 1   
    11    8   16 1   
    12    9   10 2   
    13    9   19 1   
    14   11   12 1   
    15   11   17 1   
    16   11   18 1   
    17   12   13 1   
    18   12   14 1   
    19   19   20 1   
    20   19   28 1   
    21   20   21 1   
    22   20   23 1   
    23   20   29 1   
    24   21   22 2   
    25   21   41 1   
    26   23   24 1   
    27   23   30 1   
    28   23   31 1   
    29   24   25 1   
    30   24   32 1   
    31   24   33 1   
    32   25   26 1   
    33   25   34 1   
    34   25   35 1   
    35   26   27 1   
    36   26   36 1   
    37   26   37 1   
    38   27   38 1   
    39   27   39 1   
    40   27   40 1   
    41   41   42 1   
    42   41   49 1   
    43   42   43 1   
    44   42   45 1   
    45   42   50 1   
    46   43   44 2   
    47   43   53 1   
    48   45   46 1   
    49   45   51 1   
    50   45   52 1   
    51   46   47 1   
    52   46   48 1   
    53   53   54 1   
    54   53   57 1   
    55   54   55 1   
    56   54   58 1   
    57   54   59 1   
    58   55   56 2   
    59   55   60 1   
    60   60   61 1   
    61   60   68 1   
    62   61   62 1   
    63   61   64 1   
    64   61   69 1   
    65   62   63 2   
    66   62   74 1   
    67   64   65 1   
    68   64   70 1   
    69   64   71 1   
    70   65   66 1   
    71   65   67 2   
    72   66   72 1   
    73   66   73 1   
    74   74   75 1   
    75   74   78 1   
    76   75   76 1   
    77   75   79 1   
    78   75   80 1   
    79   76   77 2   
    80   76   81 1   
    81   81   82 1   
    82   81   93 1   
    83   82   83 1   
    84   82   85 1   
    85   82   94 1   
    86   83   84 2   
    87   83  102 1   
    88   85   86 1   
    89   85   95 1   
    90   85   96 1   
    91   86   87 ar  
    92   86   88 ar  
    93   87   89 ar  
    94   87   97 1   
    95   88   90 ar  
    96   88   98 1   
    97   89   91 ar  
    98   89   99 1   
    99   90   91 ar  
   100   90  100 1   
   101   91   92 1   
   102   92  101 1   
   103  102  103 1   
   104  102  110 1   
   105  103  104 1   
   106  103  106 1   
   107  103  111 1   
   108  104  105 2   
   109  104  121 1   
   110  106  107 1   
   111  106  108 1   
   112  106  112 1   
   113  107  109 1   
   114  107  113 1   
   115  107  114 1   
   116  108  115 1   
   117  108  116 1   
   118  108  117 1   
   119  109  118 1   
   120  109  119 1   
   121  109  120 1   
   122  121  122 1   
   123  121  127 1   
   124  122  123 1   
   125  122  125 1   
   126  122  128 1   
   127  123  124 2   
   128  123  132 1   
   129  125  126 1   
   130  125  129 1   
   131  125  130 1   
   132  126  131 1   
   133  132  133 1   
   134  132  137 1   
   135  133  134 1   
   136  133  136 1   
   137  133  138 1   
   138  134  135 2   
   139  134  142 1   
   140  136  139 1   
   141  136  140 1   
   142  136  141 1   
   143  142  143 1   
   144  142  147 1   
   145  143  144 1   
   146  143  146 1   
   147  143  148 1   
   148  144  145 2   
   149  144  152 1   
   150  146  149 1   
   151  146  150 1   
   152  146  151 1   
   153  152  153 1   
   154  152  161 1   
   155  153  154 1   
   156  153  156 1   
   157  153  162 1   
   158  154  155 2   
   159  154  167 1   
   160  156  157 1   
   161  156  163 1   
   162  156  164 1   
   163  157  158 1   
   164  157  165 1   
   165  157  166 1   
   166  158  159 1   
   167  158  160 1   
   168  167  168 1   
   169  167  172 1   
   170  168  169 1   
   171  168  170 1   
   172  168  171 1   
   173  174  175 1   
   174  174  176 1   
   175  177  178 1   
   176  177  179 1   
   177  180  181 1   
   178  180  182 1   
@<TRIPOS>SUBSTRUCTURE
     1 MOL         1 TEMP              0 ****  ****    0 ROOT
