@<TRIPOS>MOLECULE
MOL
  189   185     1     0     0
SMALL
resp


@<TRIPOS>ATOM
      1 C1          4.0340    3.9970   -3.4490 c3        1 MOL     -0.523739
      2 C2          4.8500    3.3260   -2.4000 c         1 MOL      0.694984
      3 O1          4.3920    3.0330   -1.2920 o         1 MOL     -0.547396
      4 H1          4.6760    4.2740   -4.2850 hc        1 MOL      0.139790
      5 H2          3.2590    3.3150   -3.7970 hc        1 MOL      0.139790
      6 H3          3.5720    4.8920   -3.0340 hc        1 MOL      0.139790
      7 N1          6.1500    2.9900   -2.7010 n         1 MOL     -0.588013
      8 C3          7.0050    2.0570   -2.0780 c3        1 MOL      0.227397
      9 C4          6.3230    0.7450   -1.7190 c         1 MOL      0.468855
     10 O2          5.9480    0.4570   -0.5880 o         1 MOL     -0.442709
     11 C5          7.8690    2.7180   -0.9470 c3        1 MOL     -0.224120
     12 C6          7.1130    3.5260    0.1190 c         1 MOL      0.811061
     13 O3          6.3490    2.9130    0.9360 o         1 MOL     -0.732740
     14 O4          7.3680    4.7130    0.2590 o         1 MOL     -0.732740
     15 H4          6.4590    3.2530   -3.6220 hn        1 MOL      0.294739
     16 H5          7.7170    1.6970   -2.8150 h1        1 MOL      0.002891
     17 H6          8.5840    3.3880   -1.4150 hc        1 MOL      0.032151
     18 H7          8.3530    1.8730   -0.4510 hc        1 MOL      0.032151
     19 N2          6.0170   -0.0830   -2.6990 n         1 MOL     -0.522428
     20 C7          5.2820   -1.3800   -2.7460 c3        1 MOL      0.030001
     21 C8          5.9020   -2.5640   -1.9910 c         1 MOL      0.423035
     22 O5          6.0300   -3.6430   -2.5520 o         1 MOL     -0.536738
     23 C9          3.8260   -1.1440   -2.6160 c3        1 MOL      0.382027
     24 C10         2.9530   -2.4640   -2.9050 c3        1 MOL     -0.141249
     25 C11         3.2590    0.0320   -3.4640 c3        1 MOL     -0.451974
     26 C12         2.8250   -3.0910   -4.2840 c3        1 MOL     -0.267607
     27 H8          6.2830    0.1700   -3.6300 hn        1 MOL      0.261434
     28 H9          5.4570   -1.7090   -3.7800 h1        1 MOL      0.042868
     29 H10         3.6610   -0.8940   -1.5700 hc        1 MOL     -0.127420
     30 H11         1.9200   -2.2250   -2.6610 hc        1 MOL      0.116851
     31 H12         3.5000   -3.2340   -2.3510 hc        1 MOL      0.116851
     32 H13         3.6780    0.9420   -3.0470 hc        1 MOL      0.101922
     33 H14         3.3970   -0.0810   -4.5440 hc        1 MOL      0.101922
     34 H15         2.1760    0.0330   -3.3440 hc        1 MOL      0.101922
     35 H16         2.0150   -3.7770   -4.0810 hc        1 MOL      0.047440
     36 H17         2.5870   -2.3660   -5.0670 hc        1 MOL      0.047440
     37 H18         3.8240   -3.4030   -4.5920 hc        1 MOL      0.047440
     38 N3          6.3400   -2.3490   -0.7760 n         1 MOL     -0.166699
     39 C13         6.9820   -3.3630   -0.0000 c3        1 MOL      0.014784
     40 C14         6.2620   -4.7640    0.0070 c         1 MOL      0.509296
     41 O6          6.9710   -5.7660   -0.3600 o         1 MOL     -0.574105
     42 C15         7.2980   -2.9120    1.3750 c3        1 MOL     -0.265107
     43 C16         8.1290   -1.6640    1.4210 c         1 MOL      0.825626
     44 O7          7.7270   -0.7240    2.1270 o         1 MOL     -0.742474
     45 O8          9.1970   -1.6940    0.7370 o         1 MOL     -0.742474
     46 H19         6.2290   -1.4050   -0.4250 hn        1 MOL      0.218705
     47 H20         7.9280   -3.6520   -0.4550 h1        1 MOL      0.060168
     48 H21         7.9400   -3.6170    1.9060 hc        1 MOL      0.050207
     49 H22         6.4080   -2.8170    1.9900 hc        1 MOL      0.050207
     50 N4          4.9750   -4.9180    0.3770 n         1 MOL     -0.475851
     51 C17         3.9910   -3.8810    0.7350 c3        1 MOL      0.184200
     52 C18         2.8220   -4.5090    1.4280 c         1 MOL      0.497591
     53 O9          2.5770   -5.7180    1.3070 o         1 MOL     -0.555606
     54 H23         4.5640   -5.8360    0.4820 hn        1 MOL      0.270392
     55 H24         3.6220   -3.3470   -0.1410 h1        1 MOL      0.003488
     56 H25         4.4180   -3.1500    1.4160 h1        1 MOL      0.003488
     57 N5          2.0170   -3.8370    2.3250 n         1 MOL     -0.481665
     58 C19         2.0620   -2.4180    2.6960 c3        1 MOL      0.340268
     59 C20         2.0840   -1.3540    1.5660 c         1 MOL      0.077911
     60 O10         3.1120   -0.7400    1.2570 o         1 MOL     -0.443870
     61 C21         3.1810   -2.2330    3.7490 c3        1 MOL     -0.346385
     62 C22         3.1330   -0.9350    4.5810 c         1 MOL      0.766440
     63 O11         4.1140   -0.5650    5.2250 o         1 MOL     -0.694931
     64 O12         2.0980   -0.2450    4.6320 o         1 MOL     -0.694931
     65 H26         1.4800   -4.4630    2.9110 hn        1 MOL      0.293096
     66 H27         1.1450   -2.1890    3.2420 h1        1 MOL      0.010254
     67 H28         4.1640   -2.2410    3.2880 hc        1 MOL      0.073197
     68 H29         3.1130   -3.0370    4.4690 hc        1 MOL      0.073197
     69 N6          0.9540   -1.0550    0.9020 n         1 MOL     -0.038483
     70 C23        -0.4250   -1.3890    1.2810 c3        1 MOL     -0.175079
     71 C24        -0.8940   -2.6670    0.5710 c         1 MOL      0.390670
     72 O13        -0.2150   -3.1990   -0.3090 o         1 MOL     -0.468746
     73 H30         1.1130   -0.4780    0.0840 hn        1 MOL      0.176144
     74 H31        -0.9910   -0.6060    0.7730 h1        1 MOL      0.094627
     75 H32        -0.6060   -1.3910    2.3600 h1        1 MOL      0.094627
     76 N7         -2.1130   -3.0990    0.8710 n         1 MOL     -0.332973
     77 C25        -2.6790   -4.3360    0.2500 c3        1 MOL     -0.043967
     78 C26        -3.0050   -4.2010   -1.2260 c         1 MOL      0.306661
     79 O14        -3.1250   -5.1760   -1.9630 o         1 MOL     -0.502225
     80 C27        -4.1200   -4.6500    0.8540 c3        1 MOL      0.116201
     81 C28        -4.2420   -4.9010    2.3920 c3        1 MOL     -0.318966
     82 C29        -3.4960   -6.0850    2.8340 c         1 MOL      0.743565
     83 N8         -4.0070   -7.3090    2.6350 n         1 MOL     -0.875244
     84 O15        -2.4590   -6.0210    3.4220 o         1 MOL     -0.544157
     85 H33        -2.4750   -2.5460    1.6380 hn        1 MOL      0.273231
     86 H34        -2.1550   -5.2730    0.3880 h1        1 MOL      0.155633
     87 H35        -4.6180   -5.5350    0.4470 hc        1 MOL      0.007539
     88 H36        -4.7360   -3.8000    0.5600 hc        1 MOL      0.007539
     89 H37        -5.3070   -5.0110    2.5960 hc        1 MOL      0.065969
     90 H38        -3.8740   -3.9760    2.8310 hc        1 MOL      0.065969
     91 H39        -4.7580   -7.4580    1.9830 hn        1 MOL      0.379605
     92 H40        -3.5200   -8.0720    3.0840 hn        1 MOL      0.379605
     93 N9         -3.1410   -2.9530   -1.6690 n         1 MOL     -0.004518
     94 C30        -3.5490   -2.5210   -3.0530 c3        1 MOL     -0.225854
     95 C31        -4.8270   -1.6860   -3.1810 c         1 MOL      0.651583
     96 O16        -5.4380   -1.6010   -4.2460 o         1 MOL     -0.557917
     97 C32        -2.4130   -1.8350   -3.7970 c3        1 MOL      0.051152
     98 C33        -1.3380   -2.9020   -4.1120 c3        1 MOL     -0.218309
     99 C34        -1.6400   -0.7490   -3.0310 c3        1 MOL     -0.218309
    100 H41        -3.2450   -2.2180   -0.9880 hn        1 MOL      0.102647
    101 H42        -3.7920   -3.3900   -3.6590 h1        1 MOL      0.146059
    102 H43        -2.8000   -1.3730   -4.7080 hc        1 MOL      0.026292
    103 H44        -0.9580   -3.2510   -3.1470 hc        1 MOL      0.072964
    104 H45        -1.7080   -3.7590   -4.6780 hc        1 MOL      0.072964
    105 H46        -0.4440   -2.4740   -4.5440 hc        1 MOL      0.072964
    106 H47        -2.2720    0.1120   -2.7860 hc        1 MOL      0.072964
    107 H48        -1.1960   -1.1090   -2.1050 hc        1 MOL      0.072964
    108 H49        -0.8630   -0.4110   -3.7040 hc        1 MOL      0.072964
    109 N10        -5.3580   -1.1730   -2.0450 n         1 MOL     -0.524541
    110 C35        -6.6550   -0.5380   -2.0300 c3        1 MOL      0.010797
    111 C36        -6.7170    0.8380   -1.3080 c         1 MOL      0.605798
    112 O17        -7.7410    1.4470   -1.4350 o         1 MOL     -0.535539
    113 C37        -7.6320   -1.5950   -1.3720 c3        1 MOL     -0.158254
    114 C38        -7.7100   -2.9380   -1.9980 c         1 MOL      0.534156
    115 N11        -8.1170   -3.0670   -3.2490 n         1 MOL     -0.660634
    116 O18        -7.4180   -3.8600   -1.3440 o         1 MOL     -0.519731
    117 H50        -4.8410   -1.3640   -1.2030 hn        1 MOL      0.320749
    118 H51        -6.9670   -0.3970   -3.0600 h1        1 MOL      0.089473
    119 H52        -8.6090   -1.1290   -1.4240 hc        1 MOL      0.061449
    120 H53        -7.5440   -1.7480   -0.3060 hc        1 MOL      0.061449
    121 H54        -8.4820   -2.2510   -3.7260 hn        1 MOL      0.325430
    122 H55        -8.3870   -3.9940   -3.5480 hn        1 MOL      0.325430
    123 N12        -5.7040    1.2370   -0.5150 n         1 MOL     -0.527943
    124 C39        -5.8390    2.2330    0.5970 c3        1 MOL      0.225539
    125 C40        -4.5160    3.0840    0.7600 c         1 MOL      0.365094
    126 O19        -3.4170    2.5170    0.9080 o         1 MOL     -0.480846
    127 C41        -6.1340    1.4570    1.9130 c3        1 MOL     -0.151899
    128 C42        -7.4660    0.7370    1.9300 ca        1 MOL     -0.014283
    129 C43        -7.4660   -0.6770    2.2190 ca        1 MOL     -0.078644
    130 C44        -8.6810    1.4260    1.6970 ca        1 MOL     -0.078644
    131 C45        -8.7070   -1.3670    2.1460 ca        1 MOL     -0.325771
    132 C46        -9.8960    0.7230    1.7590 ca        1 MOL     -0.325771
    133 C47        -9.9320   -0.6720    1.8790 ca        1 MOL      0.380087
    134 O20       -11.1510   -1.2570    1.7160 oh        1 MOL     -0.521431
    135 H56        -4.8960    0.6460   -0.4290 hn        1 MOL      0.265752
    136 H57        -6.7090    2.8490    0.3580 h1        1 MOL      0.039688
    137 H58        -6.0430    2.0900    2.7930 hc        1 MOL      0.071069
    138 H59        -5.4120    0.6460    1.9770 hc        1 MOL      0.071069
    139 H60        -6.5970   -1.2280    2.5510 ha        1 MOL      0.132436
    140 H61        -8.6880    2.4700    1.4150 ha        1 MOL      0.132436
    141 H62        -8.7130   -2.4380    2.1530 ha        1 MOL      0.152925
    142 H63       -10.8400    1.2100    1.5770 ha        1 MOL      0.152925
    143 H64       -11.1890   -2.2140    1.7600 ho        1 MOL      0.376723
    144 N13        -4.6040    4.3820    0.7530 n         1 MOL     -0.457938
    145 C48        -3.5200    5.3930    1.0080 c3        1 MOL      0.033073
    146 C49        -2.4080    5.5950   -0.0080 c         1 MOL      0.304639
    147 O21        -1.9610    6.6830   -0.3360 o         1 MOL     -0.458079
    148 C50        -2.9660    5.2030    2.4360 c3        1 MOL     -0.231316
    149 C51        -1.8780    6.1990    2.8720 c3        1 MOL     -0.436368
    150 C52        -1.7270    6.0460    4.3840 c         1 MOL      0.792211
    151 O22        -2.4060    6.7320    5.1240 o         1 MOL     -0.735596
    152 O23        -0.9840    5.1640    4.8250 o         1 MOL     -0.735596
    153 H65        -5.5040    4.7590    0.5170 hn        1 MOL      0.289713
    154 H66        -4.0210    6.3560    0.9600 h1        1 MOL      0.095228
    155 H67        -2.5170    4.2300    2.6240 hc        1 MOL      0.157111
    156 H68        -3.7820    5.1460    3.1560 hc        1 MOL      0.157111
    157 H69        -2.2560    7.1760    2.5850 hc        1 MOL      0.122202
    158 H70        -0.9290    6.0260    2.3560 hc        1 MOL      0.122202
    159 N14        -1.9020    4.5060   -0.6160 n         1 MOL     -0.193618
    160 C53        -0.7970    4.5220   -1.6400 c3        1 MOL     -0.075303
    161 C54        -1.0980    5.3110   -2.9490 c         1 MOL      0.517489
    162 O24        -0.2590    6.0730   -3.4080 o         1 MOL     -0.511284
    163 C55        -0.5150    3.0840   -2.0560 c3        1 MOL     -0.057379
    164 C56        -0.2150    2.0560   -0.9590 c3        1 MOL      0.574383
    165 C57         1.1750    2.2720   -0.3150 c         1 MOL      0.461657
    166 O25         1.5480    3.2290    0.4280 o         1 MOL     -0.599974
    167 O26         1.9200    1.3080   -0.5050 o         1 MOL     -0.599974
    168 H71        -2.3140    3.6210   -0.3680 hn        1 MOL      0.224084
    169 H72         0.0910    4.9850   -1.2170 h1        1 MOL      0.140329
    170 H73         0.2660    3.0000   -2.8110 hc        1 MOL     -0.035957
    171 H74        -1.3370    2.7390   -2.6800 hc        1 MOL     -0.035957
    172 H75        -0.1500    1.0980   -1.4550 hc        1 MOL     -0.215158
    173 H76        -0.9480    2.1020   -0.1550 hc        1 MOL     -0.215158
    174 N15        -2.3430    5.2350   -3.4890 n         1 MOL     -0.310013
    175 C58        -2.9260    6.1470   -4.4600 c3        1 MOL     -0.263842
    176 H77        -2.2100    6.3300   -5.2610 h1        1 MOL      0.108550
    177 H78        -3.8310    5.7050   -4.8750 h1        1 MOL      0.108550
    178 H79        -3.1720    7.0890   -3.9710 h1        1 MOL      0.108550
    179 H80        -2.9880    4.5970   -3.0470 hn        1 MOL      0.243218
    180 Ca1         3.9190    1.9260    1.0310 Ca        1 MOL      1.693963
    181 O27         2.5400    1.9170    3.1790 oh        1 MOL     -0.866634
    182 H81         2.4770    1.1420    3.7410 ho        1 MOL      0.410826
    183 H82         1.6940    2.3570    3.2850 ho        1 MOL      0.410826
    184 O28         5.2600    0.6460    2.8000 oh        1 MOL     -0.866634
    185 H83         6.0510    0.1340    2.6940 ho        1 MOL      0.410826
    186 H84         4.9740    0.4560    3.6960 ho        1 MOL      0.410826
    187 O29         4.1650    4.2200    2.3430 oh        1 MOL     -0.866634
    188 H85         3.8600    4.0760    3.2360 ho        1 MOL      0.410826
    189 H86         5.0790    4.4830    2.4510 ho        1 MOL      0.410826
@<TRIPOS>BOND
     1    1    2 1   
     2    1    4 1   
     3    1    5 1   
     4    1    6 1   
     5    2    3 2   
     6    2    7 1   
     7    7    8 1   
     8    7   15 1   
     9    8    9 1   
    10    8   11 1   
    11    8   16 1   
    12    9   10 2   
    13    9   19 1   
    14   11   12 1   
    15   11   17 1   
    16   11   18 1   
    17   12   13 1   
    18   12   14 1   
    19   19   20 1   
    20   19   27 1   
    21   20   21 1   
    22   20   23 1   
    23   20   28 1   
    24   21   22 2   
    25   21   38 1   
    26   23   24 1   
    27   23   25 1   
    28   23   29 1   
    29   24   26 1   
    30   24   30 1   
    31   24   31 1   
    32   25   32 1   
    33   25   33 1   
    34   25   34 1   
    35   26   35 1   
    36   26   36 1   
    37   26   37 1   
    38   38   39 1   
    39   38   46 1   
    40   39   40 1   
    41   39   42 1   
    42   39   47 1   
    43   40   41 2   
    44   40   50 1   
    45   42   43 1   
    46   42   48 1   
    47   42   49 1   
    48   43   44 1   
    49   43   45 1   
    50   50   51 1   
    51   50   54 1   
    52   51   52 1   
    53   51   55 1   
    54   51   56 1   
    55   52   53 2   
    56   52   57 1   
    57   57   58 1   
    58   57   65 1   
    59   58   59 1   
    60   58   61 1   
    61   58   66 1   
    62   59   60 2   
    63   59   69 1   
    64   61   62 1   
    65   61   67 1   
    66   61   68 1   
    67   62   63 1   
    68   62   64 1   
    69   69   70 1   
    70   69   73 1   
    71   70   71 1   
    72   70   74 1   
    73   70   75 1   
    74   71   72 2   
    75   71   76 1   
    76   76   77 1   
    77   76   85 1   
    78   77   78 1   
    79   77   80 1   
    80   77   86 1   
    81   78   79 2   
    82   78   93 1   
    83   80   81 1   
    84   80   87 1   
    85   80   88 1   
    86   81   82 1   
    87   81   89 1   
    88   81   90 1   
    89   82   83 1   
    90   82   84 2   
    91   83   91 1   
    92   83   92 1   
    93   93   94 1   
    94   93  100 1   
    95   94   95 1   
    96   94   97 1   
    97   94  101 1   
    98   95   96 2   
    99   95  109 1   
   100   97   98 1   
   101   97   99 1   
   102   97  102 1   
   103   98  103 1   
   104   98  104 1   
   105   98  105 1   
   106   99  106 1   
   107   99  107 1   
   108   99  108 1   
   109  109  110 1   
   110  109  117 1   
   111  110  111 1   
   112  110  113 1   
   113  110  118 1   
   114  111  112 2   
   115  111  123 1   
   116  113  114 1   
   117  113  119 1   
   118  113  120 1   
   119  114  115 1   
   120  114  116 2   
   121  115  121 1   
   122  115  122 1   
   123  123  124 1   
   124  123  135 1   
   125  124  125 1   
   126  124  127 1   
   127  124  136 1   
   128  125  126 2   
   129  125  144 1   
   130  127  128 1   
   131  127  137 1   
   132  127  138 1   
   133  128  129 ar  
   134  128  130 ar  
   135  129  131 ar  
   136  129  139 1   
   137  130  132 ar  
   138  130  140 1   
   139  131  133 ar  
   140  131  141 1   
   141  132  133 ar  
   142  132  142 1   
   143  133  134 1   
   144  134  143 1   
   145  144  145 1   
   146  144  153 1   
   147  145  146 1   
   148  145  148 1   
   149  145  154 1   
   150  146  147 2   
   151  146  159 1   
   152  148  149 1   
   153  148  155 1   
   154  148  156 1   
   155  149  150 1   
   156  149  157 1   
   157  149  158 1   
   158  150  151 1   
   159  150  152 1   
   160  159  160 1   
   161  159  168 1   
   162  160  161 1   
   163  160  163 1   
   164  160  169 1   
   165  161  162 2   
   166  161  174 1   
   167  163  164 1   
   168  163  170 1   
   169  163  171 1   
   170  164  165 1   
   171  164  172 1   
   172  164  173 1   
   173  165  166 1   
   174  165  167 1   
   175  174  175 1   
   176  174  179 1   
   177  175  176 1   
   178  175  177 1   
   179  175  178 1   
   180  181  182 1   
   181  181  183 1   
   182  184  185 1   
   183  184  186 1   
   184  187  188 1   
   185  187  189 1   
@<TRIPOS>SUBSTRUCTURE
     1 MOL         1 TEMP              0 ****  ****    0 ROOT
