@<TRIPOS>MOLECULE
MOL
  189   185     1     0     0
SMALL
resp


@<TRIPOS>ATOM
      1 C1          4.2310    4.5910   -3.2530 c3        1 MOL     -0.355323
      2 C2          4.9870    3.7270   -2.2000 c         1 MOL      0.733174
      3 O1          4.3820    3.2190   -1.2380 o         1 MOL     -0.654111
      4 H1          4.6280    5.6060   -3.2430 hc        1 MOL      0.092765
      5 H2          4.3670    4.1580   -4.2440 hc        1 MOL      0.092765
      6 H3          3.1690    4.6150   -3.0090 hc        1 MOL      0.092765
      7 N1          6.2640    3.4780   -2.3580 n         1 MOL     -0.502898
      8 C3          7.0620    2.3850   -1.8790 c3        1 MOL      0.027617
      9 C4          6.3330    1.0990   -1.6250 c         1 MOL      0.468545
     10 O2          5.8100    0.8530   -0.5280 o         1 MOL     -0.505834
     11 C5          8.0410    2.8010   -0.8480 c3        1 MOL     -0.079356
     12 C6          7.4680    3.6780    0.3070 c         1 MOL      0.683659
     13 O3          6.7040    3.0800    1.0870 o         1 MOL     -0.700335
     14 O4          7.8220    4.8630    0.4040 o         1 MOL     -0.700335
     15 H4          6.7370    4.0040   -3.0680 hn        1 MOL      0.306524
     16 H5          7.6870    2.3460   -2.7740 h1        1 MOL      0.047974
     17 H6          8.8920    3.3150   -1.2980 hc        1 MOL      0.014066
     18 H7          8.4790    1.9170   -0.3830 hc        1 MOL      0.014066
     19 N2          6.0650    0.3260   -2.7350 n         1 MOL     -0.642876
     20 C7          5.4310   -0.9860   -2.8490 c3        1 MOL      0.196551
     21 C8          6.0690   -2.1080   -2.0030 c         1 MOL      0.337031
     22 O5          6.3010   -3.1810   -2.5410 o         1 MOL     -0.545929
     23 C9          3.8660   -0.8450   -2.7780 c3        1 MOL      0.530806
     24 C10         3.1110   -2.0400   -3.2880 c3        1 MOL     -0.235579
     25 C11         3.2240    0.4580   -3.3630 c3        1 MOL     -0.283675
     26 C12         3.3020   -2.3440   -4.8240 c3        1 MOL     -0.001454
     27 H8          6.3740    0.7230   -3.6070 hn        1 MOL      0.313085
     28 H9          5.7570   -1.2720   -3.8480 h1        1 MOL      0.028943
     29 H10         3.6050   -0.8160   -1.7170 hc        1 MOL     -0.241006
     30 H11         2.0720   -1.8080   -3.0510 hc        1 MOL      0.089872
     31 H12         3.3340   -2.9310   -2.7010 hc        1 MOL      0.089872
     32 H13         3.6800    0.6690   -4.3350 hc        1 MOL      0.038350
     33 H14         2.1310    0.4690   -3.3640 hc        1 MOL      0.038350
     34 H15         3.5310    1.2400   -2.6660 hc        1 MOL      0.038350
     35 H16         3.3370   -1.4000   -5.3760 hc        1 MOL     -0.024018
     36 H17         4.2960   -2.7870   -4.8500 hc        1 MOL     -0.024018
     37 H18         2.4870   -2.9360   -5.2470 hc        1 MOL     -0.024018
     38 N3          6.3720   -1.9260   -0.6960 n         1 MOL      0.027557
     39 C13         7.2190   -2.7300    0.1680 c3        1 MOL     -0.151057
     40 C14         6.8040   -4.2330    0.4350 c         1 MOL      0.668272
     41 O6          7.6830   -5.1030    0.3830 o         1 MOL     -0.571741
     42 C15         7.5430   -1.9130    1.5300 c3        1 MOL     -0.374848
     43 C16         8.5040   -2.7450    2.4470 c         1 MOL      0.739412
     44 O7          9.7440   -2.7350    2.3400 o         1 MOL     -0.714304
     45 O8          7.9440   -3.3210    3.3830 o         1 MOL     -0.714304
     46 H19         6.1600   -1.0380   -0.2630 hn        1 MOL      0.183243
     47 H20         8.2130   -2.6430   -0.2810 h1        1 MOL      0.061670
     48 H21         6.6720   -1.6590    2.1300 hc        1 MOL      0.107412
     49 H22         8.0440   -0.9900    1.2590 hc        1 MOL      0.107412
     50 N4          5.4830   -4.5920    0.5160 n         1 MOL     -0.513853
     51 C17         4.3660   -3.6410    0.4460 c3        1 MOL      0.115472
     52 C18         3.0510   -4.2220    0.9420 c         1 MOL      0.662777
     53 O9          2.7760   -5.4220    0.6210 o         1 MOL     -0.620142
     54 H23         5.3720   -5.5750    0.7300 hn        1 MOL      0.298367
     55 H24         4.2650   -3.2710   -0.5740 h1        1 MOL     -0.008887
     56 H25         4.5590   -2.7660    1.0730 h1        1 MOL     -0.008887
     57 N5          2.2960   -3.5880    1.8590 n         1 MOL     -0.381536
     58 C19         2.2850   -2.2130    2.3540 c3        1 MOL      0.012577
     59 C20         2.4830   -1.1140    1.2810 c         1 MOL      0.527218
     60 O10         3.5290   -0.5230    1.1600 o         1 MOL     -0.606744
     61 C21         3.1740   -2.0130    3.5590 c3        1 MOL     -0.008249
     62 C22         3.1690   -3.2750    4.4460 c         1 MOL      0.561489
     63 O11         2.1180   -3.9470    4.5620 o         1 MOL     -0.657424
     64 O12         4.1870   -3.5630    5.1160 o         1 MOL     -0.657424
     65 H26         1.5690   -4.1880    2.2520 hn        1 MOL      0.221744
     66 H27         1.2970   -2.0470    2.7620 h1        1 MOL      0.005793
     67 H28         2.7300   -1.2590    4.2120 hc        1 MOL      0.019492
     68 H29         4.1750   -1.7930    3.2100 hc        1 MOL      0.019492
     69 N6          1.4800   -0.7270    0.5330 n         1 MOL     -0.290773
     70 C23         0.0520   -1.1460    0.6610 c3        1 MOL     -0.130161
     71 C24        -0.3050   -2.4870    0.0020 c         1 MOL      0.602437
     72 O13         0.3890   -3.0250   -0.8700 o         1 MOL     -0.636719
     73 H30         1.5870    0.1320    0.0120 hn        1 MOL      0.277069
     74 H31        -0.5260   -0.4560    0.0550 h1        1 MOL      0.081201
     75 H32        -0.2340   -1.0960    1.7140 h1        1 MOL      0.081201
     76 N7         -1.4380   -3.1080    0.3200 n         1 MOL     -0.307097
     77 C25        -1.8950   -4.3880   -0.2360 c3        1 MOL     -0.002070
     78 C26        -2.7530   -4.1080   -1.5170 c         1 MOL      0.413671
     79 O14        -3.2630   -5.0160   -2.1370 o         1 MOL     -0.553471
     80 C27        -2.6100   -5.1960    0.8120 c3        1 MOL     -0.166002
     81 C28        -3.7080   -4.5090    1.6230 c3        1 MOL     -0.248982
     82 C29        -4.8780   -4.0480    0.8120 c         1 MOL      0.480123
     83 N8         -5.6440   -4.9290    0.2330 n         1 MOL     -0.597665
     84 O15        -5.0190   -2.9340    0.3340 o         1 MOL     -0.540635
     85 H33        -1.9850   -2.6440    1.0250 hn        1 MOL      0.201819
     86 H34        -1.1070   -5.0470   -0.6070 h1        1 MOL      0.157834
     87 H35        -1.8650   -5.5170    1.5400 hc        1 MOL      0.096484
     88 H36        -3.0880   -6.0740    0.3730 hc        1 MOL      0.096484
     89 H37        -3.3920   -3.7150    2.3110 hc        1 MOL      0.108903
     90 H38        -4.1770   -5.2240    2.3030 hc        1 MOL      0.108903
     91 H39        -5.7200   -5.9020    0.5020 hn        1 MOL      0.313834
     92 H40        -6.2400   -4.6700   -0.5320 hn        1 MOL      0.313834
     93 N9         -2.8520   -2.8770   -1.9540 n         1 MOL      0.031398
     94 C30        -3.4110   -2.5620   -3.2650 c3        1 MOL     -0.299857
     95 C31        -4.7440   -1.8970   -3.2680 c         1 MOL      0.388179
     96 O16        -5.2760   -1.5360   -4.3230 o         1 MOL     -0.563228
     97 C32        -2.3710   -1.6860   -4.0000 c3        1 MOL      0.326890
     98 C33        -1.0830   -2.4080   -4.3470 c3        1 MOL     -0.347110
     99 C34        -1.9880   -0.3170   -3.3570 c3        1 MOL     -0.347110
    100 H41        -2.5660   -2.1390   -1.3170 hn        1 MOL      0.106235
    101 H42        -3.5900   -3.4730   -3.8360 h1        1 MOL      0.170346
    102 H43        -2.6860   -1.3910   -4.9990 hc        1 MOL     -0.010107
    103 H44        -0.4820   -2.5990   -3.4650 hc        1 MOL      0.086630
    104 H45        -1.3730   -3.4170   -4.6460 hc        1 MOL      0.086630
    105 H46        -0.5450   -1.8780   -5.1260 hc        1 MOL      0.086630
    106 H47        -2.9170    0.2390   -3.2490 hc        1 MOL      0.086630
    107 H48        -1.4890   -0.3740   -2.3940 hc        1 MOL      0.086630
    108 H49        -1.3510    0.2530   -4.0380 hc        1 MOL      0.086630
    109 N10        -5.4660   -1.8010   -2.1470 n         1 MOL     -0.111392
    110 C35        -6.7710   -1.0310   -2.0530 c3        1 MOL      0.013828
    111 C36        -6.7670    0.2510   -1.3180 c         1 MOL      0.681722
    112 O17        -7.6320    1.0750   -1.5580 o         1 MOL     -0.583271
    113 C37        -7.8200   -2.0360   -1.5420 c3        1 MOL     -0.167663
    114 C38        -7.9370   -3.3680   -2.1400 c         1 MOL      0.675367
    115 N11        -8.4000   -3.5690   -3.3710 n         1 MOL     -0.818741
    116 O18        -7.6340   -4.3200   -1.4860 o         1 MOL     -0.558737
    117 H50        -5.0900   -2.2010   -1.2990 hn        1 MOL      0.187257
    118 H51        -7.1180   -0.8620   -3.0730 h1        1 MOL      0.051312
    119 H52        -8.7870   -1.5460   -1.4760 hc        1 MOL      0.046337
    120 H53        -7.4160   -2.1940   -0.5500 hc        1 MOL      0.046337
    121 H54        -8.2900   -2.8280   -4.0380 hn        1 MOL      0.378162
    122 H55        -8.4920   -4.5430   -3.6180 hn        1 MOL      0.378162
    123 N12        -5.7040    0.5890   -0.5390 n         1 MOL     -0.644425
    124 C39        -5.6920    1.6800    0.5560 c3        1 MOL      0.328264
    125 C40        -4.4160    2.5700    0.5540 c         1 MOL      0.511840
    126 O19        -3.3270    2.1110    0.1800 o         1 MOL     -0.482874
    127 C41        -5.9440    1.0050    1.8770 c3        1 MOL      0.010989
    128 C42        -7.2900    0.3080    2.0600 ca        1 MOL     -0.054802
    129 C43        -7.3710   -1.0520    2.3720 ca        1 MOL     -0.086818
    130 C44        -8.4420    1.1320    2.1010 ca        1 MOL     -0.086818
    131 C45        -8.6130   -1.6160    2.7280 ca        1 MOL     -0.259675
    132 C46        -9.6270    0.4980    2.4380 ca        1 MOL     -0.259675
    133 C47        -9.7980   -0.9120    2.6480 ca        1 MOL      0.335743
    134 O20       -10.9610   -1.4900    2.9350 oh        1 MOL     -0.502691
    135 H56        -4.9190   -0.0550   -0.5290 hn        1 MOL      0.230908
    136 H57        -6.5440    2.3640    0.5180 h1        1 MOL     -0.013087
    137 H58        -5.8270    1.7480    2.6610 hc        1 MOL      0.030195
    138 H59        -5.1240    0.3040    2.0200 hc        1 MOL      0.030195
    139 H60        -6.4680   -1.6390    2.3420 ha        1 MOL      0.127596
    140 H61        -8.3200    2.1890    1.9210 ha        1 MOL      0.127596
    141 H62        -8.5410   -2.6750    2.9420 ha        1 MOL      0.120309
    142 H63       -10.5330    1.0770    2.4570 ha        1 MOL      0.120309
    143 H64       -10.9050   -2.4460    3.0160 ho        1 MOL      0.376759
    144 N13        -4.5510    3.8320    1.0400 n         1 MOL     -0.792511
    145 C48        -3.5080    4.8250    1.4810 c3        1 MOL      0.585197
    146 C49        -2.3740    5.2550    0.4690 c         1 MOL      0.167098
    147 O21        -1.7080    6.2550    0.7490 o         1 MOL     -0.503145
    148 C50        -2.9630    4.4130    2.8960 c3        1 MOL     -0.072424
    149 C51        -4.1450    4.2320    3.8820 c3        1 MOL     -0.263167
    150 C52        -3.6490    4.1140    5.3540 c         1 MOL      0.716951
    151 O22        -3.0380    3.0810    5.8090 o         1 MOL     -0.730277
    152 O23        -3.8650    5.0760    6.1020 o         1 MOL     -0.730277
    153 H65        -5.5130    4.0870    1.2100 hn        1 MOL      0.347363
    154 H66        -4.1170    5.7260    1.6060 h1        1 MOL     -0.037957
    155 H67        -2.3680    5.2680    3.2200 hc        1 MOL      0.053924
    156 H68        -2.4020    3.4950    2.7580 hc        1 MOL      0.053924
    157 H69        -4.6820    3.3130    3.6840 hc        1 MOL      0.024160
    158 H70        -4.8020    5.0940    3.7590 hc        1 MOL      0.024160
    159 N14        -2.1380    4.5340   -0.6340 n         1 MOL     -0.204865
    160 C53        -1.0490    4.9080   -1.5990 c3        1 MOL     -0.131775
    161 C54        -1.4460    6.0250   -2.6090 c         1 MOL      0.450295
    162 O24        -0.6250    6.4420   -3.4720 o         1 MOL     -0.555002
    163 C55        -0.4630    3.6340   -2.2140 c3        1 MOL      0.026586
    164 C56        -0.0850    2.5750   -1.1950 c3        1 MOL      0.160764
    165 C57         0.9280    2.8600   -0.1180 c         1 MOL      0.478551
    166 O25         0.7720    3.9560    0.5090 o         1 MOL     -0.599987
    167 O26         1.8540    2.0560    0.1300 o         1 MOL     -0.599987
    168 H71        -2.4880    3.5860   -0.7100 hn        1 MOL      0.176615
    169 H72        -0.2750    5.4300   -1.0240 h1        1 MOL      0.163829
    170 H73         0.3830    3.8500   -2.8620 hc        1 MOL      0.008871
    171 H74        -1.2460    3.2750   -2.8870 hc        1 MOL      0.008871
    172 H75         0.1650    1.6660   -1.7430 hc        1 MOL     -0.041485
    173 H76        -1.0310    2.2450   -0.7340 hc        1 MOL     -0.041485
    174 N15        -2.6790    6.3950   -2.6020 n         1 MOL     -0.135892
    175 C58        -3.2840    7.1060   -3.7000 c3        1 MOL     -0.271471
    176 H77        -3.0470    8.1670   -3.6210 h1        1 MOL      0.100287
    177 H78        -2.8960    6.7180   -4.6420 h1        1 MOL      0.100287
    178 H79        -4.3650    6.9720   -3.6700 h1        1 MOL      0.100287
    179 H80        -3.3460    5.9940   -1.9490 hn        1 MOL      0.195800
    180 Ca1         4.1470    2.1590    1.0800 Ca        1 MOL      1.739339
    181 O27         2.6450    2.2600    3.2750 oh        1 MOL     -0.885806
    182 H81         2.4420    3.1230    3.6360 ho        1 MOL      0.427907
    183 H82         1.9210    1.7000    3.5620 ho        1 MOL      0.427907
    184 O28         3.3140    4.6520    1.6900 oh        1 MOL     -0.885806
    185 H83         3.6810    5.4950    1.9620 ho        1 MOL      0.427907
    186 H84         2.3780    4.8100    1.6250 ho        1 MOL      0.427907
    187 O29         5.6760    1.0560    2.9400 oh        1 MOL     -0.885806
    188 H85         5.5210    0.7720    3.8400 ho        1 MOL      0.427907
    189 H86         6.6230    1.1880    2.8960 ho        1 MOL      0.427907
@<TRIPOS>BOND
     1    1    2 1   
     2    1    4 1   
     3    1    5 1   
     4    1    6 1   
     5    2    3 2   
     6    2    7 1   
     7    7    8 1   
     8    7   15 1   
     9    8    9 1   
    10    8   11 1   
    11    8   16 1   
    12    9   10 2   
    13    9   19 1   
    14   11   12 1   
    15   11   17 1   
    16   11   18 1   
    17   12   13 1   
    18   12   14 1   
    19   19   20 1   
    20   19   27 1   
    21   20   21 1   
    22   20   23 1   
    23   20   28 1   
    24   21   22 2   
    25   21   38 1   
    26   23   24 1   
    27   23   25 1   
    28   23   29 1   
    29   24   26 1   
    30   24   30 1   
    31   24   31 1   
    32   25   32 1   
    33   25   33 1   
    34   25   34 1   
    35   26   35 1   
    36   26   36 1   
    37   26   37 1   
    38   38   39 1   
    39   38   46 1   
    40   39   40 1   
    41   39   42 1   
    42   39   47 1   
    43   40   41 2   
    44   40   50 1   
    45   42   43 1   
    46   42   48 1   
    47   42   49 1   
    48   43   44 1   
    49   43   45 1   
    50   50   51 1   
    51   50   54 1   
    52   51   52 1   
    53   51   55 1   
    54   51   56 1   
    55   52   53 2   
    56   52   57 1   
    57   57   58 1   
    58   57   65 1   
    59   58   59 1   
    60   58   61 1   
    61   58   66 1   
    62   59   60 2   
    63   59   69 1   
    64   61   62 1   
    65   61   67 1   
    66   61   68 1   
    67   62   63 1   
    68   62   64 1   
    69   69   70 1   
    70   69   73 1   
    71   70   71 1   
    72   70   74 1   
    73   70   75 1   
    74   71   72 2   
    75   71   76 1   
    76   76   77 1   
    77   76   85 1   
    78   77   78 1   
    79   77   80 1   
    80   77   86 1   
    81   78   79 2   
    82   78   93 1   
    83   80   81 1   
    84   80   87 1   
    85   80   88 1   
    86   81   82 1   
    87   81   89 1   
    88   81   90 1   
    89   82   83 1   
    90   82   84 2   
    91   83   91 1   
    92   83   92 1   
    93   93   94 1   
    94   93  100 1   
    95   94   95 1   
    96   94   97 1   
    97   94  101 1   
    98   95   96 2   
    99   95  109 1   
   100   97   98 1   
   101   97   99 1   
   102   97  102 1   
   103   98  103 1   
   104   98  104 1   
   105   98  105 1   
   106   99  106 1   
   107   99  107 1   
   108   99  108 1   
   109  109  110 1   
   110  109  117 1   
   111  110  111 1   
   112  110  113 1   
   113  110  118 1   
   114  111  112 2   
   115  111  123 1   
   116  113  114 1   
   117  113  119 1   
   118  113  120 1   
   119  114  115 1   
   120  114  116 2   
   121  115  121 1   
   122  115  122 1   
   123  123  124 1   
   124  123  135 1   
   125  124  125 1   
   126  124  127 1   
   127  124  136 1   
   128  125  126 2   
   129  125  144 1   
   130  127  128 1   
   131  127  137 1   
   132  127  138 1   
   133  128  129 ar  
   134  128  130 ar  
   135  129  131 ar  
   136  129  139 1   
   137  130  132 ar  
   138  130  140 1   
   139  131  133 ar  
   140  131  141 1   
   141  132  133 ar  
   142  132  142 1   
   143  133  134 1   
   144  134  143 1   
   145  144  145 1   
   146  144  153 1   
   147  145  146 1   
   148  145  148 1   
   149  145  154 1   
   150  146  147 2   
   151  146  159 1   
   152  148  149 1   
   153  148  155 1   
   154  148  156 1   
   155  149  150 1   
   156  149  157 1   
   157  149  158 1   
   158  150  151 1   
   159  150  152 1   
   160  159  160 1   
   161  159  168 1   
   162  160  161 1   
   163  160  163 1   
   164  160  169 1   
   165  161  162 2   
   166  161  174 1   
   167  163  164 1   
   168  163  170 1   
   169  163  171 1   
   170  164  165 1   
   171  164  172 1   
   172  164  173 1   
   173  165  166 1   
   174  165  167 1   
   175  174  175 1   
   176  174  179 1   
   177  175  176 1   
   178  175  177 1   
   179  175  178 1   
   180  181  182 1   
   181  181  183 1   
   182  184  185 1   
   183  184  186 1   
   184  187  188 1   
   185  187  189 1   
@<TRIPOS>SUBSTRUCTURE
     1 MOL         1 TEMP              0 ****  ****    0 ROOT
