@<TRIPOS>MOLECULE
MOL
  192   187     1     0     0
SMALL
resp


@<TRIPOS>ATOM
      1 C1          9.6560    0.3390    2.5410 c3        1 MOL     -0.402313
      2 C2          8.4120    0.0430    1.6890 c         1 MOL      0.716626
      3 O1          7.3880   -0.3400    2.2890 o         1 MOL     -0.638660
      4 H1          9.5530    1.3200    3.0050 hc        1 MOL      0.099134
      5 H2          9.7550   -0.4200    3.3170 hc        1 MOL      0.099134
      6 H3         10.5430    0.3290    1.9060 hc        1 MOL      0.099134
      7 N1          8.5470    0.2400    0.3540 n         1 MOL     -0.601726
      8 C3          7.4800    0.2790   -0.5650 c3        1 MOL      0.276566
      9 C4          7.1510   -1.1960   -1.0790 c         1 MOL      0.243919
     10 O2          7.4320   -1.5810   -2.2200 o         1 MOL     -0.432134
     11 C5          7.8620    1.2270   -1.6450 c3        1 MOL     -0.193483
     12 C6          9.3200    1.1710   -2.2180 c         1 MOL      0.703348
     13 O3          9.6320    2.0620   -3.0190 o         1 MOL     -0.650695
     14 O4         10.1420    0.2640   -1.9630 o         1 MOL     -0.650695
     15 H4          9.3830    0.6740   -0.0100 hn        1 MOL      0.289601
     16 H5          6.5550    0.6680   -0.1170 h1        1 MOL      0.017094
     17 H6          7.8350    2.2390   -1.2360 hc        1 MOL      0.050499
     18 H7          7.1260    1.1720   -2.4490 hc        1 MOL      0.050499
     19 N2          6.5810   -2.0220   -0.1780 n         1 MOL     -0.111317
     20 C7          6.1380   -3.4260   -0.3980 c3        1 MOL      0.082929
     21 C8          4.6660   -3.6530   -0.8390 c         1 MOL      0.475204
     22 O5          4.3910   -4.4670   -1.7050 o         1 MOL     -0.554420
     23 C9          6.5110   -4.3000    0.8610 c3        1 MOL     -0.064794
     24 C10         7.9690   -4.4120    1.3630 c3        1 MOL      0.115204
     25 C11         8.9400   -5.2700    0.4240 c3        1 MOL     -0.041049
     26 C12        10.3190   -5.3520    1.0280 c3        1 MOL     -0.112567
     27 N3         10.3730   -6.1690    2.2500 n4        1 MOL     -0.240272
     28 H8          6.3460   -1.6020    0.7020 hn        1 MOL      0.176553
     29 H9          6.8280   -3.9080   -1.0950 h1        1 MOL      0.032105
     30 H10         6.1540   -5.3150    0.6850 hc        1 MOL     -0.007309
     31 H11         5.8460   -4.0070    1.6720 hc        1 MOL     -0.007309
     32 H12         7.8740   -4.9250    2.3180 hc        1 MOL     -0.022831
     33 H13         8.3440   -3.4160    1.5680 hc        1 MOL     -0.022831
     34 H14         9.0300   -4.9200   -0.6080 hc        1 MOL      0.062557
     35 H15         8.5350   -6.2710    0.3950 hc        1 MOL      0.062557
     36 H16        10.5330   -4.2990    1.1970 hx        1 MOL      0.127305
     37 H17        11.0690   -5.7120    0.3210 hx        1 MOL      0.127305
     38 H18         9.9700   -7.0630    2.0070 hn        1 MOL      0.251172
     39 H19        11.2960   -6.4090    2.5800 hn        1 MOL      0.251172
     40 H20         9.8750   -5.8550    3.0720 hn        1 MOL      0.251172
     41 N4          3.6740   -2.9250   -0.3890 n         1 MOL     -0.341419
     42 C13         3.5630   -1.9270    0.6570 c3        1 MOL     -0.007959
     43 C14         3.6630   -0.4960    0.1020 c         1 MOL      0.133139
     44 O6          3.9040   -0.3540   -1.0620 o         1 MOL     -0.300272
     45 C15         2.2170   -2.2050    1.3330 c3        1 MOL     -0.132376
     46 C16         1.0830   -2.7630    0.5350 c         1 MOL      0.581635
     47 O7          0.9720   -2.7250   -0.7120 o         1 MOL     -0.581208
     48 O8          0.2210   -3.3500    1.2090 o         1 MOL     -0.581208
     49 H21         2.8170   -3.0840   -0.8900 hn        1 MOL      0.322870
     50 H22         4.3830   -2.0800    1.3640 h1        1 MOL      0.110307
     51 H23         1.9260   -1.2760    1.8310 hc        1 MOL      0.056730
     52 H24         2.4580   -2.8270    2.2090 hc        1 MOL      0.056730
     53 N5          3.6110    0.5590    0.9470 n         1 MOL     -0.382934
     54 C17         3.7780    1.9050    0.4450 c3        1 MOL      0.051779
     55 C18         2.5230    2.5710   -0.1980 c         1 MOL      0.538069
     56 O9          1.4210    1.9830   -0.2810 o         1 MOL     -0.498617
     57 H25         3.4700    0.3540    1.9250 hn        1 MOL      0.308025
     58 H26         4.5670    1.9480   -0.2960 h1        1 MOL      0.049184
     59 H27         4.0670    2.5420    1.2830 h1        1 MOL      0.049184
     60 N6          2.6750    3.7570   -0.8180 n         1 MOL     -0.533191
     61 C19         1.7400    4.6660   -1.5260 c3        1 MOL      0.638320
     62 C20         2.1680    6.0820   -1.1760 c         1 MOL      0.279057
     63 O10         3.3390    6.3910   -1.1500 o         1 MOL     -0.520894
     64 C21         1.8160    4.4790   -3.0340 c3        1 MOL     -0.114281
     65 C22         1.2180    3.1000   -3.4640 c         1 MOL      0.543229
     66 O11         1.8720    2.5190   -4.3960 o         1 MOL     -0.609902
     67 O12         0.0740    2.7180   -3.0590 o         1 MOL     -0.609902
     68 H28         3.5620    4.1970   -0.6580 hn        1 MOL      0.243743
     69 H29         0.7200    4.4450   -1.2160 h1        1 MOL     -0.271672
     70 H30         2.8700    4.5390   -3.2820 hc        1 MOL      0.021221
     71 H31         1.2400    5.3080   -3.4500 hc        1 MOL      0.021221
     72 N7          1.2750    6.9940   -1.0200 n         1 MOL     -0.313051
     73 C23        -0.1630    6.7860   -1.2120 c3        1 MOL     -0.195426
     74 C24        -0.7850    6.2730    0.0880 c         1 MOL      0.638145
     75 O13        -0.2300    6.3460    1.2150 o         1 MOL     -0.512223
     76 H32         1.6010    7.9250   -0.8200 hn        1 MOL      0.300586
     77 H33        -0.4410    6.1360   -2.0520 h1        1 MOL      0.115215
     78 H34        -0.5410    7.7880   -1.4260 h1        1 MOL      0.115215
     79 N8         -2.0090    5.7080    0.0390 n         1 MOL     -0.714965
     80 C25        -2.6420    4.8790    1.0500 c3        1 MOL      0.204325
     81 C26        -1.8080    3.6060    1.3170 c         1 MOL      0.651748
     82 O14        -1.1780    3.0420    0.3900 o         1 MOL     -0.410831
     83 C27        -4.0240    4.4930    0.5920 c3        1 MOL      0.088175
     84 C28        -4.9550    3.9470    1.7010 c3        1 MOL     -0.226516
     85 O15        -4.0620    3.5270   -0.4490 oh        1 MOL     -0.568726
     86 H35        -2.3920    5.6640   -0.9000 hn        1 MOL      0.340164
     87 H36        -2.6020    5.4130    1.9910 h1        1 MOL      0.060970
     88 H37        -4.5120    5.3760    0.1700 h1        1 MOL      0.067531
     89 H38        -4.6080    3.9930   -1.0920 ho        1 MOL      0.412499
     90 H39        -6.0090    3.9500    1.4070 hc        1 MOL      0.062686
     91 H40        -4.5730    2.9880    2.0580 hc        1 MOL      0.062686
     92 H41        -4.8590    4.5740    2.5940 hc        1 MOL      0.062686
     93 N9         -1.8530    3.1600    2.5610 n         1 MOL     -0.518116
     94 C29        -1.0870    2.0300    3.1110 c3        1 MOL     -0.014351
     95 C30        -1.2370    0.7560    2.2680 c         1 MOL      0.368948
     96 O16        -0.6100    0.5050    1.2440 o         1 MOL     -0.468574
     97 C31         0.3630    2.4630    3.2910 c3        1 MOL      0.239496
     98 C32         0.3250    3.7620    4.1660 c3        1 MOL      0.245411
     99 C33         1.2970    1.4690    3.9910 c3        1 MOL     -0.328100
    100 C34         1.7180    4.3920    4.3320 c3        1 MOL     -0.354085
    101 H42        -2.4800    3.6170    3.2050 hn        1 MOL      0.278849
    102 H43        -1.3750    1.9130    4.1580 h1        1 MOL      0.034848
    103 H44         0.8110    2.6480    2.3180 hc        1 MOL     -0.028889
    104 H45        -0.0550    3.5040    5.1530 hc        1 MOL     -0.075554
    105 H46        -0.3330    4.4750    3.6750 hc        1 MOL     -0.075554
    106 H47         1.2630    0.4790    3.5300 hc        1 MOL      0.081331
    107 H48         2.3210    1.8370    3.9180 hc        1 MOL      0.081331
    108 H49         1.0320    1.3570    5.0380 hc        1 MOL      0.081331
    109 H50         2.4070    4.0870    3.5380 hc        1 MOL      0.086457
    110 H51         1.4970    5.4480    4.1720 hc        1 MOL      0.086457
    111 H52         1.9970    4.2830    5.3730 hc        1 MOL      0.086457
    112 N10        -2.0800   -0.0820    2.8730 n         1 MOL     -0.346905
    113 C35        -2.4080   -1.4750    2.5330 c3        1 MOL     -0.121460
    114 C36        -3.9280   -1.8120    2.3880 c         1 MOL      0.490488
    115 O17        -4.3260   -2.8590    1.8090 o         1 MOL     -0.558812
    116 C37        -1.7450   -2.4370    3.4920 c3        1 MOL      0.363368
    117 C38        -2.2630   -2.4440    4.9000 c3        1 MOL     -0.228566
    118 O18        -0.3290   -2.2130    3.6430 oh        1 MOL     -0.598828
    119 H53        -2.5320    0.2380    3.7180 hn        1 MOL      0.284466
    120 H54        -2.0200   -1.6820    1.5310 h1        1 MOL      0.200775
    121 H55        -1.9320   -3.4090    3.0600 h1        1 MOL     -0.000440
    122 H56         0.1380   -2.5510    2.8710 ho        1 MOL      0.318078
    123 H57        -2.0370   -3.3720    5.4340 hc        1 MOL      0.047787
    124 H58        -1.8860   -1.6510    5.5420 hc        1 MOL      0.047787
    125 H59        -3.3420   -2.3000    4.8750 hc        1 MOL      0.047787
    126 N11        -4.7810   -0.8000    2.6500 n         1 MOL     -0.271852
    127 C39        -6.2390   -0.9020    2.2210 c3        1 MOL     -0.046560
    128 C40        -6.5130   -1.0390    0.7100 c         1 MOL      0.345347
    129 O19        -6.3110   -0.1410   -0.1180 o         1 MOL     -0.452989
    130 C41        -7.1200    0.3570    2.6680 c3        1 MOL      0.465864
    131 C42        -8.6450    0.1370    2.5280 c3        1 MOL     -0.308445
    132 O20        -6.8680    0.6760    3.9990 oh        1 MOL     -0.627093
    133 H60        -4.4740    0.0330    3.1350 hn        1 MOL      0.202657
    134 H61        -6.6780   -1.7840    2.6780 h1        1 MOL      0.063579
    135 H62        -6.8650    1.2180    2.0480 h1        1 MOL     -0.069452
    136 H63        -7.3740    1.4920    4.0880 ho        1 MOL      0.380790
    137 H64        -8.9620   -0.8920    2.6860 hc        1 MOL      0.074051
    138 H65        -9.1920    0.6980    3.2870 hc        1 MOL      0.074051
    139 H66        -8.9480    0.5760    1.5740 hc        1 MOL      0.074051
    140 N12        -6.8960   -2.3290    0.4000 n         1 MOL     -0.099677
    141 C43        -7.0000   -2.9010   -0.9430 c3        1 MOL     -0.027972
    142 C44        -5.8490   -2.4380   -1.9410 c         1 MOL      0.473533
    143 O21        -6.0850   -1.7250   -2.9170 o         1 MOL     -0.507173
    144 C45        -8.4420   -2.6910   -1.4580 c3        1 MOL     -0.099660
    145 C46        -9.4310   -3.1690   -0.3800 c3        1 MOL     -0.000898
    146 C47       -10.7770   -3.6870   -0.8790 c3        1 MOL      0.080675
    147 C48       -11.4270   -2.6130   -1.7030 c3        1 MOL      0.058602
    148 N13       -12.8360   -2.8810   -1.8110 n4        1 MOL     -0.329342
    149 H67        -7.0300   -3.0000    1.1380 hn        1 MOL      0.186988
    150 H68        -6.7910   -3.9500   -0.7200 h1        1 MOL      0.079810
    151 H69        -8.5270   -3.2100   -2.4170 hc        1 MOL      0.050669
    152 H70        -8.7590   -1.6820   -1.6780 hc        1 MOL      0.050669
    153 H71        -9.5890   -2.2910    0.2430 hc        1 MOL     -0.025656
    154 H72        -8.9540   -3.9620    0.1960 hc        1 MOL     -0.025656
    155 H73       -11.3630   -3.8840    0.0120 hc        1 MOL      0.006934
    156 H74       -10.6210   -4.6200   -1.4240 hc        1 MOL      0.006934
    157 H75       -10.9550   -2.5590   -2.6770 hx        1 MOL      0.077860
    158 H76       -11.2950   -1.6480   -1.2150 hx        1 MOL      0.077860
    159 H77       -13.0080   -3.7430   -2.2960 hn        1 MOL      0.258441
    160 H78       -13.3170   -2.8570   -0.9160 hn        1 MOL      0.258441
    161 H79       -13.2780   -2.1520   -2.3580 hn        1 MOL      0.258441
    162 N14        -4.6740   -2.8940   -1.6390 n         1 MOL     -0.474967
    163 C49        -3.4910   -2.2630   -2.2030 c3        1 MOL      0.252868
    164 C50        -2.4090   -2.3770   -1.0960 c         1 MOL      0.468271
    165 O22        -1.6920   -1.4240   -0.9540 o         1 MOL     -0.574234
    166 C51        -3.1140   -2.9430   -3.5350 c3        1 MOL     -0.282311
    167 C52        -1.7470   -2.5260   -4.0450 c3        1 MOL      0.100692
    168 C53        -1.6840   -1.0660   -4.5110 c         1 MOL      0.580807
    169 O23        -1.8320   -0.7760   -5.6990 o         1 MOL     -0.587411
    170 O24        -1.6100   -0.1530   -3.6220 o         1 MOL     -0.587411
    171 H80        -4.5390   -3.5640   -0.8870 hn        1 MOL      0.255564
    172 H81        -3.7590   -1.2180   -2.3610 h1        1 MOL      0.061197
    173 H82        -3.9430   -2.8820   -4.2390 hc        1 MOL      0.074542
    174 H83        -3.0620   -3.9980   -3.3000 hc        1 MOL      0.074542
    175 H84        -1.4650   -3.2190   -4.8430 hc        1 MOL     -0.002800
    176 H85        -0.9160   -2.6530   -3.3530 hc        1 MOL     -0.002800
    177 N15        -2.1600   -3.4340   -0.3750 n         1 MOL     -0.154345
    178 C54        -2.3860   -4.8160   -0.7110 c3        1 MOL     -0.149939
    179 H86        -3.0980   -5.2490   -0.0080 h1        1 MOL      0.056253
    180 H87        -2.7890   -4.8830   -1.7220 h1        1 MOL      0.056253
    181 H88        -1.4440   -5.3630   -0.6580 h1        1 MOL      0.056253
    182 H89        -1.3450   -3.3900    0.2260 hn        1 MOL      0.225019
    183 Ca1        -0.8910    1.0050   -1.4140 Ca        1 MOL      1.650380
    184 O25        -2.7040    2.4490   -2.9430 oh        1 MOL     -0.887537
    185 H90        -2.8780    1.7950   -3.6190 ho        1 MOL      0.405544
    186 H91        -3.2560    3.1980   -3.1880 ho        1 MOL      0.405544
    187 O26         1.3170   -0.4560   -1.9560 oh        1 MOL     -0.887537
    188 H92         1.1750   -1.1880   -1.3550 ho        1 MOL      0.405544
    189 H93         2.2330   -0.2300   -1.8370 ho        1 MOL      0.405544
    190 O27        -3.6860    0.8220   -0.4000 oh        1 MOL     -0.887537
    191 H94        -4.5170    0.4150   -0.1860 ho        1 MOL      0.405544
    192 H95        -3.8970    1.7460   -0.5330 ho        1 MOL      0.405544
@<TRIPOS>BOND
     1    1    2 1   
     2    1    4 1   
     3    1    5 1   
     4    1    6 1   
     5    2    3 2   
     6    2    7 1   
     7    7    8 1   
     8    7   15 1   
     9    8    9 1   
    10    8   11 1   
    11    8   16 1   
    12    9   10 2   
    13    9   19 1   
    14   11   12 1   
    15   11   17 1   
    16   11   18 1   
    17   12   13 1   
    18   12   14 1   
    19   19   20 1   
    20   19   28 1   
    21   20   21 1   
    22   20   23 1   
    23   20   29 1   
    24   21   22 2   
    25   21   41 1   
    26   23   24 1   
    27   23   30 1   
    28   23   31 1   
    29   24   25 1   
    30   24   32 1   
    31   24   33 1   
    32   25   26 1   
    33   25   34 1   
    34   25   35 1   
    35   26   27 1   
    36   26   36 1   
    37   26   37 1   
    38   27   38 1   
    39   27   39 1   
    40   27   40 1   
    41   41   42 1   
    42   41   49 1   
    43   42   43 1   
    44   42   45 1   
    45   42   50 1   
    46   43   44 2   
    47   43   53 1   
    48   45   46 1   
    49   45   51 1   
    50   45   52 1   
    51   46   47 1   
    52   46   48 1   
    53   53   54 1   
    54   53   57 1   
    55   54   55 1   
    56   54   58 1   
    57   54   59 1   
    58   55   56 2   
    59   55   60 1   
    60   60   61 1   
    61   60   68 1   
    62   61   62 1   
    63   61   64 1   
    64   61   69 1   
    65   62   63 2   
    66   62   72 1   
    67   64   65 1   
    68   64   70 1   
    69   64   71 1   
    70   65   66 1   
    71   65   67 1   
    72   72   73 1   
    73   72   76 1   
    74   73   74 1   
    75   73   77 1   
    76   73   78 1   
    77   74   75 2   
    78   74   79 1   
    79   79   80 1   
    80   79   86 1   
    81   80   81 1   
    82   80   83 1   
    83   80   87 1   
    84   81   82 2   
    85   81   93 1   
    86   83   84 1   
    87   83   85 1   
    88   83   88 1   
    89   84   90 1   
    90   84   91 1   
    91   84   92 1   
    92   85   89 1   
    93   93   94 1   
    94   93  101 1   
    95   94   95 1   
    96   94   97 1   
    97   94  102 1   
    98   95   96 2   
    99   95  112 1   
   100   97   98 1   
   101   97   99 1   
   102   97  103 1   
   103   98  100 1   
   104   98  104 1   
   105   98  105 1   
   106   99  106 1   
   107   99  107 1   
   108   99  108 1   
   109  100  109 1   
   110  100  110 1   
   111  100  111 1   
   112  112  113 1   
   113  112  119 1   
   114  113  114 1   
   115  113  116 1   
   116  113  120 1   
   117  114  115 2   
   118  114  126 1   
   119  116  117 1   
   120  116  118 1   
   121  116  121 1   
   122  117  123 1   
   123  117  124 1   
   124  117  125 1   
   125  118  122 1   
   126  126  127 1   
   127  126  133 1   
   128  127  128 1   
   129  127  130 1   
   130  127  134 1   
   131  128  129 2   
   132  128  140 1   
   133  130  131 1   
   134  130  132 1   
   135  130  135 1   
   136  131  137 1   
   137  131  138 1   
   138  131  139 1   
   139  132  136 1   
   140  140  141 1   
   141  140  149 1   
   142  141  142 1   
   143  141  144 1   
   144  141  150 1   
   145  142  143 2   
   146  142  162 1   
   147  144  145 1   
   148  144  151 1   
   149  144  152 1   
   150  145  146 1   
   151  145  153 1   
   152  145  154 1   
   153  146  147 1   
   154  146  155 1   
   155  146  156 1   
   156  147  148 1   
   157  147  157 1   
   158  147  158 1   
   159  148  159 1   
   160  148  160 1   
   161  148  161 1   
   162  162  163 1   
   163  162  171 1   
   164  163  164 1   
   165  163  166 1   
   166  163  172 1   
   167  164  165 2   
   168  164  177 1   
   169  166  167 1   
   170  166  173 1   
   171  166  174 1   
   172  167  168 1   
   173  167  175 1   
   174  167  176 1   
   175  168  169 1   
   176  168  170 1   
   177  177  178 1   
   178  177  182 1   
   179  178  179 1   
   180  178  180 1   
   181  178  181 1   
   182  184  185 1   
   183  184  186 1   
   184  187  188 1   
   185  187  189 1   
   186  190  191 1   
   187  190  192 1   
@<TRIPOS>SUBSTRUCTURE
     1 MOL         1 TEMP              0 ****  ****    0 ROOT
