@<TRIPOS>MOLECULE
MOL
  195   189     1     0     0
SMALL
resp


@<TRIPOS>ATOM
      1 C1          4.5710   -2.0280   -2.8430 c3        1 MOL     -0.393675
      2 C2          3.4490   -2.6490   -2.0080 c         1 MOL      0.597368
      3 O1          2.3600   -2.0630   -1.8720 o         1 MOL     -0.453155
      4 H1          4.2150   -1.8610   -3.8600 hc        1 MOL      0.099490
      5 H2          4.8690   -1.0780   -2.4020 hc        1 MOL      0.099490
      6 H3          5.4260   -2.7040   -2.8650 hc        1 MOL      0.099490
      7 N1          3.6840   -3.8310   -1.3990 n         1 MOL     -0.436317
      8 C3          2.8350   -4.3610   -0.3830 c3        1 MOL     -0.192025
      9 C4          1.3380   -4.4790   -0.7190 c         1 MOL      0.727105
     10 O2          0.5190   -3.7400   -0.1010 o         1 MOL     -0.536984
     11 C5          3.1240   -3.6170    0.9620 c3        1 MOL     -0.287749
     12 C6          4.6510   -3.3750    1.2340 c         1 MOL      0.829152
     13 O3          5.3470   -4.3590    1.1130 o         1 MOL     -0.758162
     14 O4          5.1880   -2.2680    1.5640 o         1 MOL     -0.758162
     15 H4          4.5280   -4.3330   -1.6280 hn        1 MOL      0.270752
     16 H5          3.2590   -5.3620   -0.2770 h1        1 MOL      0.107576
     17 H6          2.6920   -4.1600    1.8050 hc        1 MOL      0.111379
     18 H7          2.6490   -2.6420    0.9000 hc        1 MOL      0.111379
     19 N2          1.0230   -5.3030   -1.6990 n         1 MOL     -0.636122
     20 C7         -0.4010   -5.3890   -2.1770 c3        1 MOL     -0.130641
     21 C8         -1.1960   -6.4570   -1.3940 c         1 MOL      0.652061
     22 O5         -0.7270   -7.5480   -1.1550 o         1 MOL     -0.589820
     23 C9         -0.4030   -5.3610   -3.7360 c3        1 MOL      0.339283
     24 C10         0.2140   -6.5770   -4.3790 c3        1 MOL      0.010120
     25 C11         0.2820   -4.0760   -4.2920 c3        1 MOL     -0.150499
     26 C12         0.0500   -6.6900   -5.9510 c3        1 MOL     -0.241432
     27 H8          1.8150   -5.7370   -2.1490 hn        1 MOL      0.343986
     28 H9         -0.8930   -4.4500   -1.9100 h1        1 MOL      0.143879
     29 H10        -1.4590   -5.2650   -4.0050 hc        1 MOL     -0.038264
     30 H11        -0.2800   -7.4310   -3.9120 hc        1 MOL     -0.011436
     31 H12         1.2730   -6.5350   -4.1390 hc        1 MOL     -0.011436
     32 H13        -0.1080   -3.2510   -3.7180 hc        1 MOL      0.031658
     33 H14         1.3660   -4.1520   -4.2130 hc        1 MOL      0.031658
     34 H15         0.0320   -4.0150   -5.3580 hc        1 MOL      0.031658
     35 H16         0.3680   -5.8150   -6.5260 hc        1 MOL      0.052467
     36 H17         0.5280   -7.5710   -6.3860 hc        1 MOL      0.052467
     37 H18        -1.0280   -6.8090   -6.0680 hc        1 MOL      0.052467
     38 N3         -2.4590   -6.2130   -0.9140 n         1 MOL     -0.646647
     39 C13        -3.0730   -4.8710   -0.7330 c3        1 MOL      0.224025
     40 C14        -4.0160   -5.0120    0.5420 c         1 MOL      0.490443
     41 O6         -5.1760   -5.3960    0.4390 o         1 MOL     -0.512888
     42 C15        -3.8050   -4.4320   -2.0570 c3        1 MOL     -0.292772
     43 C16        -4.8590   -3.3770   -1.8540 c         1 MOL      0.758515
     44 O7         -5.7780   -3.3250   -2.6630 o         1 MOL     -0.709970
     45 O8         -4.7940   -2.5850   -0.9150 o         1 MOL     -0.709970
     46 H19        -2.9340   -6.9780   -0.4530 hn        1 MOL      0.346046
     47 H20        -2.3290   -4.1310   -0.4340 h1        1 MOL      0.009226
     48 H21        -4.1110   -5.3360   -2.5880 hc        1 MOL      0.054177
     49 H22        -3.0760   -3.9580   -2.7160 hc        1 MOL      0.054177
     50 N4         -3.4750   -4.7780    1.7200 n         1 MOL     -0.402417
     51 C17        -4.2650   -5.0510    2.9800 c3        1 MOL     -0.191984
     52 C18        -5.4790   -4.1890    3.2710 c         1 MOL      0.617821
     53 O9         -6.1810   -4.4980    4.2490 o         1 MOL     -0.593883
     54 H23        -2.5020   -4.5020    1.7860 hn        1 MOL      0.312235
     55 H24        -3.6440   -4.9400    3.8760 h1        1 MOL      0.108450
     56 H25        -4.5780   -6.0920    3.0240 h1        1 MOL      0.108450
     57 N5         -5.7590   -3.0630    2.4940 n         1 MOL     -0.421736
     58 C19        -6.5460   -1.9080    2.9500 c3        1 MOL      0.036263
     59 C20        -7.5370   -1.4090    1.8440 c         1 MOL      0.424315
     60 O10        -8.5810   -0.8090    2.0590 o         1 MOL     -0.552608
     61 C21        -5.5860   -0.7700    3.3980 c3        1 MOL      0.004750
     62 C22        -4.3630   -0.4520    2.5570 c         1 MOL      0.719659
     63 O11        -4.5840    0.4090    1.6480 o         1 MOL     -0.698582
     64 O12        -3.3160   -1.0080    2.8950 o         1 MOL     -0.698582
     65 H26        -5.1890   -3.0320    1.6580 hn        1 MOL      0.225364
     66 H27        -7.1970   -2.2760    3.7390 h1        1 MOL      0.075346
     67 H28        -5.3170   -1.0330    4.4200 hc        1 MOL     -0.032343
     68 H29        -6.0960    0.1750    3.5860 hc        1 MOL     -0.032343
     69 N6         -7.2110   -1.5540    0.5320 n         1 MOL     -0.284601
     70 C23        -7.9580   -0.8680   -0.4880 c3        1 MOL     -0.101436
     71 C24        -7.8430    0.6660   -0.5710 c         1 MOL      0.462121
     72 O13        -8.5360    1.3370   -1.3540 o         1 MOL     -0.601368
     73 H30        -6.3730   -2.0480    0.2500 hn        1 MOL      0.283385
     74 H31        -9.0070   -1.1250   -0.3860 h1        1 MOL      0.086296
     75 H32        -7.6430   -1.2250   -1.4640 h1        1 MOL      0.086296
     76 N7         -7.0260    1.2320    0.3260 n         1 MOL     -0.036579
     77 C25        -6.7920    2.6870    0.5380 c3        1 MOL     -0.077956
     78 C26        -6.4880    3.6090   -0.6390 c         1 MOL      0.657588
     79 O14        -6.8080    4.7970   -0.5990 o         1 MOL     -0.564661
     80 C27        -7.7370    3.2550    1.6260 c3        1 MOL      0.153757
     81 C28        -7.5740    2.5440    3.0150 c3        1 MOL     -0.092463
     82 C29        -8.4290    3.1680    4.1160 c         1 MOL      0.555419
     83 N8         -8.8540    2.3980    5.0990 n         1 MOL     -0.698687
     84 O15        -8.9350    4.2810    4.1520 o         1 MOL     -0.568075
     85 H33        -6.3720    0.6320    0.8180 hn        1 MOL      0.124239
     86 H34        -5.8060    2.7590    0.9890 h1        1 MOL      0.095579
     87 H35        -8.7370    3.2410    1.1960 hc        1 MOL     -0.031055
     88 H36        -7.5560    4.3190    1.7520 hc        1 MOL     -0.031055
     89 H37        -6.5400    2.5360    3.3370 hc        1 MOL      0.021613
     90 H38        -7.8620    1.4990    2.9290 hc        1 MOL      0.021613
     91 H39        -8.4050    1.5090    5.2870 hn        1 MOL      0.316648
     92 H40        -9.4990    2.8450    5.7450 hn        1 MOL      0.316648
     93 N9         -5.7930    3.0830   -1.6140 n         1 MOL     -0.559110
     94 C30        -5.4680    3.7920   -2.9190 c3        1 MOL     -0.069969
     95 C31        -3.9460    3.7080   -3.2060 c         1 MOL      0.623759
     96 O16        -3.4130    4.4690   -3.9860 o         1 MOL     -0.608867
     97 C32        -6.2110    3.1130   -4.0880 c3        1 MOL      0.342072
     98 C33        -6.0110    1.6290   -4.1310 c3        1 MOL     -0.425264
     99 C34        -7.7270    3.4800   -4.0890 c3        1 MOL     -0.425264
    100 H41        -5.5980    2.1080   -1.4730 hn        1 MOL      0.218109
    101 H42        -5.6730    4.8580   -2.8860 h1        1 MOL      0.097748
    102 H43        -5.8260    3.5690   -5.0070 hc        1 MOL     -0.050906
    103 H44        -6.5380    1.2430   -5.0010 hc        1 MOL      0.105197
    104 H45        -4.9410    1.4540   -4.2450 hc        1 MOL      0.105197
    105 H46        -6.4230    1.0600   -3.2930 hc        1 MOL      0.105197
    106 H47        -8.1100    3.1880   -5.0730 hc        1 MOL      0.105197
    107 H48        -8.1940    2.9780   -3.2420 hc        1 MOL      0.105197
    108 H49        -7.8200    4.5680   -4.0170 hc        1 MOL      0.105197
    109 N10        -3.3100    2.7080   -2.6730 n         1 MOL     -0.412908
    110 C35        -1.8930    2.5000   -2.7420 c3        1 MOL      0.189990
    111 C36        -1.1620    2.8730   -1.4060 c         1 MOL      0.527689
    112 O17        -1.8600    2.9710   -0.3450 o         1 MOL     -0.539500
    113 C37        -1.7320    1.0140   -3.0820 c3        1 MOL     -0.236409
    114 C38        -0.4090    0.3620   -2.9800 c         1 MOL      0.524777
    115 N11        -0.0750   -0.3200   -1.9130 n         1 MOL     -0.438443
    116 O18         0.4950    0.5020   -3.7940 o         1 MOL     -0.607905
    117 H50        -3.9010    1.9820   -2.2880 hn        1 MOL      0.313678
    118 H51        -1.4780    3.1220   -3.5410 h1        1 MOL      0.049804
    119 H52        -1.9690    0.7660   -4.1100 hc        1 MOL      0.073085
    120 H53        -2.3730    0.3990   -2.4600 hc        1 MOL      0.073085
    121 H54        -0.8000   -0.6060   -1.2670 hn        1 MOL      0.271471
    122 H55         0.8450   -0.7270   -1.8440 hn        1 MOL      0.271471
    123 N12         0.1660    2.8060   -1.4050 n         1 MOL     -0.680656
    124 C39         1.0310    3.0940   -0.2550 c3        1 MOL      0.338977
    125 C40         2.4910    3.3880   -0.4950 c         1 MOL      0.702238
    126 O19         3.1080    2.5880   -1.2370 o         1 MOL     -0.598080
    127 C41         0.8750    2.0270    0.8070 c3        1 MOL     -0.205038
    128 C42         1.0610    2.5010    2.2940 ca        1 MOL     -0.014828
    129 C43         2.3820    2.7030    2.8760 ca        1 MOL     -0.144488
    130 C44        -0.0780    2.6360    3.1100 ca        1 MOL     -0.144488
    131 C45         2.4740    3.1070    4.1880 ca        1 MOL     -0.197342
    132 C46         0.0290    3.0440    4.4380 ca        1 MOL     -0.197342
    133 C47         1.3160    3.3610    4.9570 ca        1 MOL      0.248199
    134 O20         1.3920    3.8750    6.1900 oh        1 MOL     -0.502504
    135 H56         0.5720    2.6220   -2.3150 hn        1 MOL      0.340081
    136 H57         0.6080    3.9910    0.1980 h1        1 MOL      0.046810
    137 H58         1.4400    1.1300    0.5470 hc        1 MOL      0.099943
    138 H59        -0.0910    1.5340    0.8080 hc        1 MOL      0.099943
    139 H60         3.3060    2.5260    2.3340 ha        1 MOL      0.167603
    140 H61        -1.0600    2.4710    2.6930 ha        1 MOL      0.167603
    141 H62         3.4580    3.0750    4.6400 ha        1 MOL      0.125392
    142 H63        -0.8390    3.2690    5.0330 ha        1 MOL      0.125392
    143 H64         2.2660    4.0080    6.5680 ho        1 MOL      0.365190
    144 N13         3.0100    4.5000    0.0710 n         1 MOL     -1.103357
    145 C48         4.3570    4.8860   -0.1440 c3        1 MOL      0.994411
    146 C49         5.2200    4.1620    0.9220 c         1 MOL      0.180905
    147 O21         5.0290    4.4200    2.0970 o         1 MOL     -0.552203
    148 C50         4.6010    6.4180    0.0050 c3        1 MOL      0.074377
    149 C51         3.6910    7.2640   -0.9050 c3        1 MOL     -0.247635
    150 C52         3.9870    8.6970   -0.6650 c         1 MOL      0.731195
    151 O22         3.4660    9.3050    0.2790 o         1 MOL     -0.702078
    152 O23         4.8080    9.2400   -1.4250 o         1 MOL     -0.702078
    153 H65         2.4480    5.0240    0.7310 hn        1 MOL      0.407604
    154 H66         4.5970    4.5700   -1.1610 h1        1 MOL     -0.144228
    155 H67         5.6620    6.5220   -0.2230 hc        1 MOL     -0.021554
    156 H68         4.4250    6.6590    1.0570 hc        1 MOL     -0.021554
    157 H69         2.6180    7.1460   -0.7250 hc        1 MOL      0.027663
    158 H70         3.9140    6.9430   -1.9290 hc        1 MOL      0.027663
    159 N14         6.1900    3.3110    0.5960 n         1 MOL     -0.263835
    160 C53         6.5630    2.9080   -0.8200 c3        1 MOL     -0.398026
    161 C54         6.8890    3.9930   -1.7840 c         1 MOL      0.391965
    162 O24         7.5140    4.9910   -1.3940 o         1 MOL     -0.455389
    163 C55         7.7510    1.9660   -0.8420 c3        1 MOL      0.317058
    164 C56         7.4960    0.6090   -0.1330 c3        1 MOL     -0.230095
    165 C57         8.6220   -0.3720   -0.0730 c         1 MOL      0.721098
    166 O25         8.5010   -1.6070    0.1840 o         1 MOL     -0.736050
    167 O26         9.7710    0.0180   -0.3830 o         1 MOL     -0.736050
    168 H71         6.8660    3.0840    1.3090 hn        1 MOL      0.290570
    169 H72         5.6960    2.3190   -1.1130 h1        1 MOL      0.185334
    170 H73         8.6150    2.4080   -0.3530 hc        1 MOL     -0.015988
    171 H74         7.9420    1.7500   -1.8970 hc        1 MOL     -0.015988
    172 H75         6.6630    0.0820   -0.6090 hc        1 MOL      0.061540
    173 H76         7.1310    0.7430    0.8900 hc        1 MOL      0.061540
    174 N15         6.4300    3.8250   -3.0660 n         1 MOL     -0.269720
    175 C58         6.6450    4.7730   -4.2270 c3        1 MOL     -0.149217
    176 H77         6.5250    4.2310   -5.1640 h1        1 MOL      0.087163
    177 H78         5.9140    5.5800   -4.1780 h1        1 MOL      0.087163
    178 H79         7.6510    5.1910   -4.1740 h1        1 MOL      0.087163
    179 H80         6.2700    2.8500   -3.2940 hn        1 MOL      0.255353
    180 Ca1         7.7020   -3.2680    1.8860 Ca        1 MOL      1.559977
    181 O27         9.6170   -3.7860    3.7630 oh        1 MOL     -0.765788
    182 H81         9.3590   -4.3820    4.4680 ho        1 MOL      0.373346
    183 H82        10.5420   -3.6170    3.9300 ho        1 MOL      0.373346
    184 O28        10.2720   -3.6490    0.7700 oh        1 MOL     -0.765788
    185 H83         9.9990   -2.8850    0.2480 ho        1 MOL      0.373346
    186 H84        10.6060   -4.2710    0.1230 ho        1 MOL      0.373346
    187 O29         7.9390   -5.8770    2.0870 oh        1 MOL     -0.765788
    188 H85         7.2950   -6.5570    2.2380 ho        1 MOL      0.373346
    189 H86         8.7840   -6.2950    2.2570 ho        1 MOL      0.373346
    190 O30         7.4420   -0.9660    3.2310 oh        1 MOL     -0.765788
    191 H87         8.0080   -0.7880    3.9790 ho        1 MOL      0.373346
    192 H88         7.0950   -0.0990    2.9900 ho        1 MOL      0.373346
    193 O31         6.0350   -3.7150    3.8180 oh        1 MOL     -0.765788
    194 H89         5.5140   -3.1590    4.3980 ho        1 MOL      0.373346
    195 H90         5.7160   -4.6010    3.9690 ho        1 MOL      0.373346
@<TRIPOS>BOND
     1    1    2 1   
     2    1    4 1   
     3    1    5 1   
     4    1    6 1   
     5    2    3 2   
     6    2    7 1   
     7    7    8 1   
     8    7   15 1   
     9    8    9 1   
    10    8   11 1   
    11    8   16 1   
    12    9   10 2   
    13    9   19 1   
    14   11   12 1   
    15   11   17 1   
    16   11   18 1   
    17   12   13 1   
    18   12   14 1   
    19   19   20 1   
    20   19   27 1   
    21   20   21 1   
    22   20   23 1   
    23   20   28 1   
    24   21   22 2   
    25   21   38 1   
    26   23   24 1   
    27   23   25 1   
    28   23   29 1   
    29   24   26 1   
    30   24   30 1   
    31   24   31 1   
    32   25   32 1   
    33   25   33 1   
    34   25   34 1   
    35   26   35 1   
    36   26   36 1   
    37   26   37 1   
    38   38   39 1   
    39   38   46 1   
    40   39   40 1   
    41   39   42 1   
    42   39   47 1   
    43   40   41 2   
    44   40   50 1   
    45   42   43 1   
    46   42   48 1   
    47   42   49 1   
    48   43   44 1   
    49   43   45 1   
    50   50   51 1   
    51   50   54 1   
    52   51   52 1   
    53   51   55 1   
    54   51   56 1   
    55   52   53 2   
    56   52   57 1   
    57   57   58 1   
    58   57   65 1   
    59   58   59 1   
    60   58   61 1   
    61   58   66 1   
    62   59   60 2   
    63   59   69 1   
    64   61   62 1   
    65   61   67 1   
    66   61   68 1   
    67   62   63 1   
    68   62   64 1   
    69   69   70 1   
    70   69   73 1   
    71   70   71 1   
    72   70   74 1   
    73   70   75 1   
    74   71   72 2   
    75   71   76 1   
    76   76   77 1   
    77   76   85 1   
    78   77   78 1   
    79   77   80 1   
    80   77   86 1   
    81   78   79 2   
    82   78   93 1   
    83   80   81 1   
    84   80   87 1   
    85   80   88 1   
    86   81   82 1   
    87   81   89 1   
    88   81   90 1   
    89   82   83 1   
    90   82   84 2   
    91   83   91 1   
    92   83   92 1   
    93   93   94 1   
    94   93  100 1   
    95   94   95 1   
    96   94   97 1   
    97   94  101 1   
    98   95   96 2   
    99   95  109 1   
   100   97   98 1   
   101   97   99 1   
   102   97  102 1   
   103   98  103 1   
   104   98  104 1   
   105   98  105 1   
   106   99  106 1   
   107   99  107 1   
   108   99  108 1   
   109  109  110 1   
   110  109  117 1   
   111  110  111 1   
   112  110  113 1   
   113  110  118 1   
   114  111  112 2   
   115  111  123 1   
   116  113  114 1   
   117  113  119 1   
   118  113  120 1   
   119  114  115 1   
   120  114  116 2   
   121  115  121 1   
   122  115  122 1   
   123  123  124 1   
   124  123  135 1   
   125  124  125 1   
   126  124  127 1   
   127  124  136 1   
   128  125  126 2   
   129  125  144 1   
   130  127  128 1   
   131  127  137 1   
   132  127  138 1   
   133  128  129 ar  
   134  128  130 ar  
   135  129  131 ar  
   136  129  139 1   
   137  130  132 ar  
   138  130  140 1   
   139  131  133 ar  
   140  131  141 1   
   141  132  133 ar  
   142  132  142 1   
   143  133  134 1   
   144  134  143 1   
   145  144  145 1   
   146  144  153 1   
   147  145  146 1   
   148  145  148 1   
   149  145  154 1   
   150  146  147 2   
   151  146  159 1   
   152  148  149 1   
   153  148  155 1   
   154  148  156 1   
   155  149  150 1   
   156  149  157 1   
   157  149  158 1   
   158  150  151 1   
   159  150  152 1   
   160  159  160 1   
   161  159  168 1   
   162  160  161 1   
   163  160  163 1   
   164  160  169 1   
   165  161  162 2   
   166  161  174 1   
   167  163  164 1   
   168  163  170 1   
   169  163  171 1   
   170  164  165 1   
   171  164  172 1   
   172  164  173 1   
   173  165  166 1   
   174  165  167 1   
   175  174  175 1   
   176  174  179 1   
   177  175  176 1   
   178  175  177 1   
   179  175  178 1   
   180  181  182 1   
   181  181  183 1   
   182  184  185 1   
   183  184  186 1   
   184  187  188 1   
   185  187  189 1   
   186  190  191 1   
   187  190  192 1   
   188  193  194 1   
   189  193  195 1   
@<TRIPOS>SUBSTRUCTURE
     1 MOL         1 TEMP              0 ****  ****    0 ROOT
