@<TRIPOS>MOLECULE
MOL
  186   183     1     0     0
SMALL
resp


@<TRIPOS>ATOM
      1 C1         -6.9120   -4.2130   -3.0530 c3        1 MOL     -0.360300
      2 C2         -6.8020   -3.2370   -1.9500 c         1 MOL      0.825773
      3 O1         -5.8370   -3.1940   -1.1980 o         1 MOL     -0.660855
      4 H1         -7.0350   -5.2150   -2.6410 hc        1 MOL      0.084876
      5 H2         -7.7750   -3.9670   -3.6730 hc        1 MOL      0.084876
      6 H3         -6.0070   -4.1790   -3.6610 hc        1 MOL      0.084876
      7 N1         -7.8530   -2.4570   -1.8050 n         1 MOL     -0.690470
      8 C3         -7.9480   -1.2390   -0.9600 c3        1 MOL      0.301851
      9 C4         -6.6640   -0.4080   -1.0570 c         1 MOL      0.321151
     10 O2         -5.8390   -0.2940   -0.1040 o         1 MOL     -0.674312
     11 C5         -8.4710   -1.5750    0.4630 c3        1 MOL     -0.263645
     12 C6         -7.8130   -2.8170    1.1340 c         1 MOL      0.828413
     13 O3         -6.6390   -2.7820    1.5430 o         1 MOL     -0.753690
     14 O4         -8.4850   -3.8310    1.4580 o         1 MOL     -0.753690
     15 H4         -8.6320   -2.6580   -2.4240 hn        1 MOL      0.344402
     16 H5         -8.7170   -0.6240   -1.4190 h1        1 MOL      0.027447
     17 H6         -9.5370   -1.7240    0.3590 hc        1 MOL      0.049999
     18 H7         -8.3170   -0.7130    1.1270 hc        1 MOL      0.049999
     19 N2         -6.3770    0.0910   -2.2710 n         1 MOL     -0.641798
     20 C7         -5.2710    1.0540   -2.6490 c3        1 MOL      0.332887
     21 C8         -5.3140    2.3780   -1.8100 c         1 MOL      0.309927
     22 O5         -5.0110    3.3840   -2.4260 o         1 MOL     -0.541292
     23 C9         -3.8740    0.4000   -2.6750 c3        1 MOL      0.640019
     24 C10        -2.8920    1.2380   -3.4200 c3        1 MOL     -0.098365
     25 C11        -4.0490   -1.0240   -3.3370 c3        1 MOL     -0.390662
     26 C12        -3.1180    1.6480   -4.8910 c3        1 MOL     -0.389569
     27 H8         -7.0200   -0.1100   -3.0330 hn        1 MOL      0.312739
     28 H9         -5.3880    1.2250   -3.7200 h1        1 MOL     -0.064367
     29 H10        -3.5000    0.4030   -1.6580 hc        1 MOL     -0.155054
     30 H11        -2.0070    0.5940   -3.4520 hc        1 MOL      0.061251
     31 H12        -2.6800    2.1130   -2.7980 hc        1 MOL      0.061251
     32 H13        -4.6560   -0.9310   -4.2350 hc        1 MOL      0.064322
     33 H14        -3.0650   -1.4410   -3.5650 hc        1 MOL      0.064322
     34 H15        -4.4060   -1.8010   -2.6710 hc        1 MOL      0.064322
     35 H16        -2.1340    1.8900   -5.2720 hc        1 MOL      0.080936
     36 H17        -3.3970    0.8490   -5.5820 hc        1 MOL      0.080936
     37 H18        -3.6350    2.5990   -4.9210 hc        1 MOL      0.080936
     38 N3         -5.8800    2.4380   -0.6010 n         1 MOL     -0.384777
     39 C13        -6.3730    3.7580   -0.0470 c3        1 MOL      0.172398
     40 C14        -5.4420    4.9640   -0.0580 c         1 MOL      0.506000
     41 O6         -5.8810    6.0870   -0.3990 o         1 MOL     -0.552120
     42 C15        -6.7060    3.4620    1.4050 c3        1 MOL     -0.500336
     43 C16        -6.9020    4.6910    2.2860 c         1 MOL      0.787018
     44 O7         -7.9270    5.3870    2.1300 o         1 MOL     -0.725110
     45 O8         -6.0490    5.0580    3.0720 o         1 MOL     -0.725110
     46 H19        -6.1270    1.5250   -0.2330 hn        1 MOL      0.428985
     47 H20        -7.2270    4.1030   -0.6240 h1        1 MOL      0.049850
     48 H21        -5.9400    2.9360    1.9770 hc        1 MOL      0.118513
     49 H22        -7.6500    2.9270    1.5040 hc        1 MOL      0.118513
     50 N4         -4.1280    4.8030    0.2450 n         1 MOL     -0.309649
     51 C17        -3.4090    3.5830    0.6760 c3        1 MOL      0.031574
     52 C18        -2.3270    3.9710    1.7590 c         1 MOL      0.635593
     53 O9         -1.8510    5.1060    1.7990 o         1 MOL     -0.583064
     54 H23        -3.5340    5.5960    0.1070 hn        1 MOL      0.220850
     55 H24        -2.8790    3.0720   -0.1270 h1        1 MOL      0.039416
     56 H25        -4.2170    2.9720    1.0750 h1        1 MOL      0.039416
     57 N5         -1.7740    3.0040    2.5620 n         1 MOL     -0.585102
     58 C19        -2.0850    1.5350    2.5800 c3        1 MOL      0.123078
     59 C20        -2.0230    0.8360    1.1660 c         1 MOL      0.395084
     60 O10        -2.9750    0.1970    0.7770 o         1 MOL     -0.482274
     61 C21        -3.3220    1.2500    3.4040 c3        1 MOL     -0.094760
     62 C22        -3.5770   -0.1890    3.6570 c         1 MOL      0.657444
     63 O11        -4.4570   -0.8180    3.0340 o         1 MOL     -0.699022
     64 O12        -2.8250   -0.8010    4.5110 o         1 MOL     -0.699022
     65 H26        -1.0620    3.3220    3.2090 hn        1 MOL      0.298396
     66 H27        -1.2890    1.0070    3.1150 h1        1 MOL      0.075490
     67 H28        -4.2190    1.6910    2.9660 hc        1 MOL      0.027353
     68 H29        -3.1410    1.5850    4.4310 hc        1 MOL      0.027353
     69 N6         -0.9510    0.9350    0.4060 n         1 MOL      0.041078
     70 C23         0.4120    1.2830    0.8130 c3        1 MOL     -0.521817
     71 C24         1.0010    2.3450   -0.1310 c         1 MOL      0.491304
     72 O13         0.5080    2.5850   -1.2210 o         1 MOL     -0.474588
     73 H30        -1.0620    0.5060   -0.4940 hn        1 MOL      0.018844
     74 H31         0.9090    0.3450    0.5700 h1        1 MOL      0.194425
     75 H32         0.5160    1.4570    1.8870 h1        1 MOL      0.194425
     76 N7          2.0420    3.0260    0.2950 n         1 MOL     -0.266504
     77 C25         2.8090    4.0770   -0.4310 c3        1 MOL     -0.269959
     78 C26         3.4500    3.7400   -1.7710 c         1 MOL      0.519451
     79 O14         3.7360    4.6420   -2.5160 o         1 MOL     -0.482077
     80 C27         3.8120    4.6120    0.6850 c3        1 MOL      0.068367
     81 C28         3.2530    5.5240    1.7570 c3        1 MOL     -0.310699
     82 C29         3.1570    7.0460    1.3680 c         1 MOL      0.646740
     83 N8          2.1960    7.8280    1.8090 n         1 MOL     -0.736215
     84 O15         3.9960    7.6640    0.6900 o         1 MOL     -0.546803
     85 H33         2.3440    2.8760    1.2520 hn        1 MOL      0.258333
     86 H34         2.1450    4.9330   -0.5540 h1        1 MOL      0.206747
     87 H35         4.5790    5.1480    0.1180 hc        1 MOL      0.044572
     88 H36         4.2870    3.7480    1.1420 hc        1 MOL      0.044572
     89 H37         3.8370    5.3450    2.6700 hc        1 MOL      0.092457
     90 H38         2.2400    5.1100    1.8090 hc        1 MOL      0.092457
     91 H39         1.5350    7.5770    2.5330 hn        1 MOL      0.348532
     92 H40         2.0910    8.7760    1.4920 hn        1 MOL      0.348532
     93 N9          3.5920    2.4050   -2.0630 n         1 MOL     -0.276375
     94 C30         4.0220    1.9000   -3.4500 c3        1 MOL     -0.214093
     95 C31         5.2750    1.0130   -3.4700 c         1 MOL      0.671203
     96 O16         5.9330    0.7530   -4.4480 o         1 MOL     -0.555063
     97 C32         2.7900    1.1080   -4.1410 c3        1 MOL      0.125754
     98 C33         1.6900    2.1140   -4.4080 c3        1 MOL     -0.162426
     99 C34         2.2530   -0.0580   -3.3430 c3        1 MOL     -0.162426
    100 H41         3.4400    1.7580   -1.3000 hn        1 MOL      0.218160
    101 H42         4.1640    2.7210   -4.1590 h1        1 MOL      0.127992
    102 H43         3.1130    0.7540   -5.1220 hc        1 MOL     -0.003283
    103 H44         0.9150    1.6890   -5.0480 hc        1 MOL      0.051436
    104 H45         1.2670    2.3230   -3.4150 hc        1 MOL      0.051436
    105 H46         1.8790    3.0720   -4.8950 hc        1 MOL      0.051436
    106 H47         2.9950   -0.7830   -3.0030 hc        1 MOL      0.051436
    107 H48         1.7780    0.2960   -2.4200 hc        1 MOL      0.051436
    108 H49         1.4910   -0.6120   -3.8810 hc        1 MOL      0.051436
    109 N10         5.7300    0.6670   -2.2180 n         1 MOL     -0.485695
    110 C35         7.0550    0.0670   -1.9100 c3        1 MOL      0.002309
    111 C36         6.9990   -1.2860   -1.2030 c         1 MOL      0.593449
    112 O17         7.8120   -2.1040   -1.3620 o         1 MOL     -0.555878
    113 C37         7.7690    1.1020   -0.9290 c3        1 MOL     -0.342586
    114 C38         7.6860    2.4500   -1.5740 c         1 MOL      0.731488
    115 N11         8.2900    2.5810   -2.7570 n         1 MOL     -0.839902
    116 O18         7.2270    3.4410   -0.9840 o         1 MOL     -0.563022
    117 H50         5.1810    0.8770   -1.3950 hn        1 MOL      0.218558
    118 H51         7.6900   -0.1090   -2.7900 h1        1 MOL      0.077698
    119 H52         8.7880    0.8490   -0.6310 hc        1 MOL      0.134415
    120 H53         7.1230    1.1350   -0.0540 hc        1 MOL      0.134415
    121 H54         8.6630    1.7500   -3.2060 hn        1 MOL      0.379904
    122 H55         8.0470    3.3980   -3.2970 hn        1 MOL      0.379904
    123 N12         5.9710   -1.3870   -0.3460 n         1 MOL     -0.383478
    124 C39         5.6850   -2.4600    0.6280 c3        1 MOL      0.080071
    125 C40         4.2240   -2.9130    0.7120 c         1 MOL      0.297992
    126 O19         3.3010   -2.1870    0.3730 o         1 MOL     -0.436417
    127 C41         6.0380   -1.8170    2.0420 c3        1 MOL     -0.164242
    128 C42         7.3240   -1.0930    2.0700 ca        1 MOL     -0.004838
    129 C43         7.3670    0.3000    2.2890 ca        1 MOL     -0.127716
    130 C44         8.4600   -1.8720    1.7760 ca        1 MOL     -0.127716
    131 C45         8.6560    0.9340    2.2510 ca        1 MOL     -0.282779
    132 C46         9.7560   -1.2730    1.8530 ca        1 MOL     -0.282779
    133 C47         9.8450    0.1450    2.0260 ca        1 MOL      0.341579
    134 O20        11.1040    0.7470    2.2070 oh        1 MOL     -0.546596
    135 H56         5.3240   -0.6330   -0.4880 hn        1 MOL      0.258942
    136 H57         6.3900   -3.2860    0.5400 h1        1 MOL      0.047025
    137 H58         5.9060   -2.6370    2.7510 hc        1 MOL      0.108774
    138 H59         5.2220   -1.1680    2.3620 hc        1 MOL      0.108774
    139 H60         6.4840    0.8630    2.5490 ha        1 MOL      0.144870
    140 H61         8.3950   -2.9340    1.5660 ha        1 MOL      0.144870
    141 H62         8.8090    1.9440    2.5970 ha        1 MOL      0.147625
    142 H63        10.6190   -1.9000    1.8090 ha        1 MOL      0.147625
    143 H64        11.9050    0.2320    2.3120 ho        1 MOL      0.376854
    144 N13         4.0630   -4.0620    1.3600 n         1 MOL     -0.368299
    145 C48         2.8470   -4.7190    1.7630 c3        1 MOL     -0.137036
    146 C49         1.8300   -5.0390    0.6650 c         1 MOL      0.557385
    147 O21         1.2660   -6.1400    0.7480 o         1 MOL     -0.589768
    148 C50         2.2200   -3.9270    2.9360 c3        1 MOL      0.065677
    149 C51         3.2000   -3.7850    4.0720 c3        1 MOL     -0.098593
    150 C52         2.5190   -3.1040    5.2380 c         1 MOL      0.646982
    151 O22         2.5160   -1.8680    5.2480 o         1 MOL     -0.706543
    152 O23         1.8620   -3.8480    5.9860 o         1 MOL     -0.706543
    153 H65         4.8980   -4.5840    1.5930 hn        1 MOL      0.310075
    154 H66         3.1060   -5.7450    2.0300 h1        1 MOL      0.091384
    155 H67         1.3000   -4.3930    3.2800 hc        1 MOL      0.073469
    156 H68         1.9600   -2.9190    2.6160 hc        1 MOL      0.073469
    157 H69         4.0400   -3.1850    3.7210 hc        1 MOL     -0.046712
    158 H70         3.6360   -4.7100    4.4450 hc        1 MOL     -0.046712
    159 N14         1.6950   -4.2860   -0.3620 n         1 MOL     -0.437783
    160 C53         0.6130   -4.3510   -1.3960 c3        1 MOL     -0.180764
    161 C54         0.7730   -5.4430   -2.4410 c         1 MOL      0.480676
    162 O24        -0.0980   -5.5790   -3.3120 o         1 MOL     -0.516528
    163 C55         0.4450   -2.9600   -2.0920 c3        1 MOL     -0.121192
    164 C56        -0.0550   -1.8910   -1.0580 c3        1 MOL      0.121675
    165 C57        -1.3960   -2.2060   -0.3870 c         1 MOL      0.768270
    166 O25        -2.3840   -2.3130   -1.0790 o         1 MOL     -0.761316
    167 O26        -1.5770   -2.3350    0.8590 o         1 MOL     -0.761316
    168 H71         2.2170   -3.4170   -0.3670 hn        1 MOL      0.318448
    169 H72        -0.2830   -4.6360   -0.8510 h1        1 MOL      0.238505
    170 H73        -0.3270   -3.1650   -2.8360 hc        1 MOL      0.051450
    171 H74         1.3830   -2.6810   -2.5750 hc        1 MOL      0.051450
    172 H75        -0.0760   -1.0050   -1.6900 hc        1 MOL     -0.052929
    173 H76         0.7790   -1.7350   -0.3650 hc        1 MOL     -0.052929
    174 N15         1.8520   -6.2480   -2.3980 n         1 MOL     -0.292935
    175 C58         1.9110   -7.4230   -3.3550 c3        1 MOL     -0.102785
    176 H77         1.6690   -8.3400   -2.8180 h1        1 MOL      0.063327
    177 H78         1.1920   -7.2740   -4.1600 h1        1 MOL      0.063327
    178 H79         2.9150   -7.5020   -3.7740 h1        1 MOL      0.063327
    179 H80         2.6510   -6.1890   -1.7840 hn        1 MOL      0.262560
    180 Ca1        -4.1670   -2.3310    0.7640 Ca        1 MOL      1.782153
    181 O27        -4.0460   -3.8330    3.1970 oh        1 MOL     -0.777351
    182 H81        -4.7620   -3.3080    3.5510 ho        1 MOL      0.381656
    183 H82        -4.1150   -4.6670    3.6490 ho        1 MOL      0.381656
    184 O28        -3.7110   -4.9050    0.1600 oh        1 MOL     -0.777351
    185 H83        -4.4050   -5.5300    0.3320 ho        1 MOL      0.381656
    186 H84        -3.2730   -5.2380   -0.6280 ho        1 MOL      0.381656
@<TRIPOS>BOND
     1    1    2 1   
     2    1    4 1   
     3    1    5 1   
     4    1    6 1   
     5    2    3 2   
     6    2    7 1   
     7    7    8 1   
     8    7   15 1   
     9    8    9 1   
    10    8   11 1   
    11    8   16 1   
    12    9   10 2   
    13    9   19 1   
    14   11   12 1   
    15   11   17 1   
    16   11   18 1   
    17   12   13 1   
    18   12   14 1   
    19   19   20 1   
    20   19   27 1   
    21   20   21 1   
    22   20   23 1   
    23   20   28 1   
    24   21   22 2   
    25   21   38 1   
    26   23   24 1   
    27   23   25 1   
    28   23   29 1   
    29   24   26 1   
    30   24   30 1   
    31   24   31 1   
    32   25   32 1   
    33   25   33 1   
    34   25   34 1   
    35   26   35 1   
    36   26   36 1   
    37   26   37 1   
    38   38   39 1   
    39   38   46 1   
    40   39   40 1   
    41   39   42 1   
    42   39   47 1   
    43   40   41 2   
    44   40   50 1   
    45   42   43 1   
    46   42   48 1   
    47   42   49 1   
    48   43   44 1   
    49   43   45 1   
    50   50   51 1   
    51   50   54 1   
    52   51   52 1   
    53   51   55 1   
    54   51   56 1   
    55   52   53 2   
    56   52   57 1   
    57   57   58 1   
    58   57   65 1   
    59   58   59 1   
    60   58   61 1   
    61   58   66 1   
    62   59   60 2   
    63   59   69 1   
    64   61   62 1   
    65   61   67 1   
    66   61   68 1   
    67   62   63 1   
    68   62   64 1   
    69   69   70 1   
    70   69   73 1   
    71   70   71 1   
    72   70   74 1   
    73   70   75 1   
    74   71   72 2   
    75   71   76 1   
    76   76   77 1   
    77   76   85 1   
    78   77   78 1   
    79   77   80 1   
    80   77   86 1   
    81   78   79 2   
    82   78   93 1   
    83   80   81 1   
    84   80   87 1   
    85   80   88 1   
    86   81   82 1   
    87   81   89 1   
    88   81   90 1   
    89   82   83 1   
    90   82   84 2   
    91   83   91 1   
    92   83   92 1   
    93   93   94 1   
    94   93  100 1   
    95   94   95 1   
    96   94   97 1   
    97   94  101 1   
    98   95   96 2   
    99   95  109 1   
   100   97   98 1   
   101   97   99 1   
   102   97  102 1   
   103   98  103 1   
   104   98  104 1   
   105   98  105 1   
   106   99  106 1   
   107   99  107 1   
   108   99  108 1   
   109  109  110 1   
   110  109  117 1   
   111  110  111 1   
   112  110  113 1   
   113  110  118 1   
   114  111  112 2   
   115  111  123 1   
   116  113  114 1   
   117  113  119 1   
   118  113  120 1   
   119  114  115 1   
   120  114  116 2   
   121  115  121 1   
   122  115  122 1   
   123  123  124 1   
   124  123  135 1   
   125  124  125 1   
   126  124  127 1   
   127  124  136 1   
   128  125  126 2   
   129  125  144 1   
   130  127  128 1   
   131  127  137 1   
   132  127  138 1   
   133  128  129 ar  
   134  128  130 ar  
   135  129  131 ar  
   136  129  139 1   
   137  130  132 ar  
   138  130  140 1   
   139  131  133 ar  
   140  131  141 1   
   141  132  133 ar  
   142  132  142 1   
   143  133  134 1   
   144  134  143 1   
   145  144  145 1   
   146  144  153 1   
   147  145  146 1   
   148  145  148 1   
   149  145  154 1   
   150  146  147 2   
   151  146  159 1   
   152  148  149 1   
   153  148  155 1   
   154  148  156 1   
   155  149  150 1   
   156  149  157 1   
   157  149  158 1   
   158  150  151 1   
   159  150  152 1   
   160  159  160 1   
   161  159  168 1   
   162  160  161 1   
   163  160  163 1   
   164  160  169 1   
   165  161  162 2   
   166  161  174 1   
   167  163  164 1   
   168  163  170 1   
   169  163  171 1   
   170  164  165 1   
   171  164  172 1   
   172  164  173 1   
   173  165  166 1   
   174  165  167 1   
   175  174  175 1   
   176  174  179 1   
   177  175  176 1   
   178  175  177 1   
   179  175  178 1   
   180  181  182 1   
   181  181  183 1   
   182  184  185 1   
   183  184  186 1   
@<TRIPOS>SUBSTRUCTURE
     1 MOL         1 TEMP              0 ****  ****    0 ROOT
