@<TRIPOS>MOLECULE
MOL
  182   178     1     0     0
SMALL
resp


@<TRIPOS>ATOM
      1 C1          2.1000   -5.9200    5.4270 c3        1 MOL     -0.396094
      2 C2          2.0310   -5.3500    4.0460 c         1 MOL      0.742071
      3 O1          1.0850   -5.6610    3.2730 o         1 MOL     -0.635216
      4 H1          2.9870   -6.5470    5.5170 hc        1 MOL      0.113585
      5 H2          2.1540   -5.1090    6.1540 hc        1 MOL      0.113585
      6 H3          1.2110   -6.5210    5.6180 hc        1 MOL      0.113585
      7 N1          3.0500   -4.5900    3.6020 n         1 MOL     -0.630627
      8 C3          3.0390   -3.8920    2.3490 c3        1 MOL      0.040555
      9 C4          3.6160   -4.7200    1.1830 c         1 MOL      0.732038
     10 O2          4.6580   -5.3580    1.3130 o         1 MOL     -0.553053
     11 C5          4.0090   -2.7010    2.5510 c3        1 MOL      0.058671
     12 C6          4.0990   -1.6850    1.4320 c         1 MOL      0.222254
     13 O3          4.5050   -0.5330    1.7780 o         1 MOL     -0.621691
     14 O4          3.5650   -1.8660    0.3320 o         1 MOL     -0.621691
     15 H4          3.5910   -4.2960    4.4040 hn        1 MOL      0.304234
     16 H5          2.0420   -3.5540    2.0760 h1        1 MOL      0.040887
     17 H6          4.9650   -3.1190    2.8640 hc        1 MOL      0.059691
     18 H7          3.6690   -2.1490    3.4270 hc        1 MOL      0.059691
     19 N2          2.8140   -4.5420    0.1440 n         1 MOL     -0.494528
     20 C7          3.0360   -5.3960   -1.0680 c3        1 MOL     -0.047036
     21 C8          4.1760   -4.9590   -1.9600 c         1 MOL      0.421804
     22 O5          4.8020   -5.7020   -2.6740 o         1 MOL     -0.532169
     23 C9          1.7220   -5.3760   -1.8680 c3        1 MOL     -0.033981
     24 C10         0.4670   -5.8810   -1.1520 c3        1 MOL      0.037986
     25 C11        -0.8250   -5.5680   -1.8960 c3        1 MOL      0.021050
     26 C12        -2.0810   -6.1400   -1.2770 c3        1 MOL     -0.009997
     27 N3         -3.2200   -5.8540   -2.1880 n4        1 MOL     -0.158449
     28 H8          2.1150   -3.8170    0.0820 hn        1 MOL      0.278325
     29 H9          3.0940   -6.4330   -0.7350 h1        1 MOL      0.116824
     30 H10         1.9600   -6.0000   -2.7320 hc        1 MOL      0.028451
     31 H11         1.5480   -4.3790   -2.2640 hc        1 MOL      0.028451
     32 H12         0.4520   -5.5670   -0.1090 hc        1 MOL      0.013233
     33 H13         0.4260   -6.9760   -1.1280 hc        1 MOL      0.013233
     34 H14        -0.7910   -5.9560   -2.9120 hc        1 MOL      0.002172
     35 H15        -0.9160   -4.5040   -2.0850 hc        1 MOL      0.002172
     36 H16        -2.2070   -5.6780   -0.3030 hx        1 MOL      0.070166
     37 H17        -1.9720   -7.2040   -1.0870 hx        1 MOL      0.070166
     38 H18        -4.0240   -6.4090   -1.9670 hn        1 MOL      0.227053
     39 H19        -3.4280   -4.8700   -2.0850 hn        1 MOL      0.227053
     40 H20        -2.9790   -6.0400   -3.1550 hn        1 MOL      0.227053
     41 N4          4.5080   -3.6740   -1.9550 n         1 MOL     -0.089111
     42 C13         5.6250   -3.0660   -2.7220 c3        1 MOL     -0.073105
     43 C14         6.6660   -2.5620   -1.6830 c         1 MOL      0.352182
     44 O6          7.6130   -1.8480   -2.0210 o         1 MOL     -0.496743
     45 C15         5.1180   -2.0130   -3.7030 c3        1 MOL     -0.145147
     46 C16         4.2610   -1.0420   -2.9660 c         1 MOL      0.578965
     47 O7          4.8440   -0.2280   -2.1850 o         1 MOL     -0.647178
     48 O8          3.0690   -0.9830   -3.1480 o         1 MOL     -0.647178
     49 H21         3.9440   -3.0470   -1.3960 hn        1 MOL      0.138620
     50 H22         6.0960   -3.8140   -3.3540 h1        1 MOL      0.129851
     51 H23         4.5130   -2.4760   -4.4820 hc        1 MOL      0.075141
     52 H24         5.9150   -1.5000   -4.2340 hc        1 MOL      0.075141
     53 N5          6.3930   -2.7290   -0.3940 n         1 MOL     -0.014940
     54 C17         7.2290   -2.1250    0.6720 c3        1 MOL     -0.294897
     55 C18         7.4420   -0.6230    0.8920 c         1 MOL      0.652384
     56 O9          8.2440   -0.2040    1.6650 o         1 MOL     -0.578662
     57 H25         5.6560   -3.3930   -0.2120 hn        1 MOL      0.115319
     58 H26         8.2140   -2.5580    0.4750 h1        1 MOL      0.119620
     59 H27         6.8540   -2.5800    1.5860 h1        1 MOL      0.119620
     60 N6          6.8550    0.2190    0.0190 n         1 MOL     -0.000585
     61 C19         7.1410    1.6280   -0.1140 c3        1 MOL     -0.032310
     62 C20         5.8610    2.5090   -0.1610 c         1 MOL      0.417205
     63 O10         4.7790    1.9570   -0.1380 o         1 MOL     -0.413331
     64 C21         8.1060    1.9280   -1.2790 c3        1 MOL     -0.209372
     65 C22         7.5980    2.4990   -2.5310 c         1 MOL      0.606340
     66 N7          6.5770    1.8640   -3.1120 n         1 MOL     -0.630405
     67 O11         8.1570    3.4230   -3.0970 o         1 MOL     -0.578804
     68 H28         6.3870   -0.2470   -0.7440 hn        1 MOL     -0.081694
     69 H29         7.6610    1.8730    0.8150 h1        1 MOL      0.076084
     70 H30         8.5640    0.9710   -1.5280 hc        1 MOL      0.092008
     71 H31         8.9410    2.5780   -1.0050 hc        1 MOL      0.092008
     72 H32         6.2870    0.9410   -2.8170 hn        1 MOL      0.294729
     73 H33         6.2640    2.1310   -4.0370 hn        1 MOL      0.294729
     74 N8          6.0140    3.8270   -0.1580 n         1 MOL     -0.359128
     75 C23         4.9380    4.7560   -0.4040 c3        1 MOL      0.021589
     76 C24         3.8450    4.7530    0.6630 c         1 MOL      0.444303
     77 O12         4.2220    4.7090    1.8250 o         1 MOL     -0.458639
     78 H34         6.9780    4.1270   -0.2060 hn        1 MOL      0.285028
     79 H35         4.5220    4.6130   -1.4060 h1        1 MOL      0.042566
     80 H36         5.3380    5.7630   -0.4790 h1        1 MOL      0.042566
     81 N9          2.5820    4.8340    0.1880 n         1 MOL     -0.345180
     82 C25         1.4200    4.7150    1.0200 c3        1 MOL      0.057762
     83 C26         1.2350    3.2380    1.3700 c         1 MOL      0.787496
     84 O13         1.9350    2.3080    0.8940 o         1 MOL     -0.680653
     85 C27         0.1800    5.2970    0.2740 c3        1 MOL     -0.149215
     86 C28         0.2280    6.8480    0.1140 ca        1 MOL      0.051098
     87 C29        -0.7850    7.6260    0.8170 ca        1 MOL     -0.155206
     88 C30         1.0610    7.4650   -0.8140 ca        1 MOL     -0.155206
     89 C31        -0.6620    9.0520    0.7400 ca        1 MOL     -0.188862
     90 C32         1.1630    8.8460   -0.8140 ca        1 MOL     -0.188862
     91 C33         0.3330    9.6600   -0.0270 ca        1 MOL      0.246444
     92 O14         0.5130   11.0150   -0.2590 oh        1 MOL     -0.449875
     93 H37         2.3790    4.4930   -0.7400 hn        1 MOL      0.249860
     94 H38         1.5060    5.2410    1.9780 h1        1 MOL      0.056004
     95 H39        -0.7540    5.0220    0.7690 hc        1 MOL      0.056317
     96 H40         0.0690    4.7650   -0.6670 hc        1 MOL      0.056317
     97 H41        -1.5170    7.1520    1.4410 ha        1 MOL      0.115857
     98 H42         1.8260    6.8630   -1.2950 ha        1 MOL      0.115857
     99 H43        -1.3030    9.6690    1.3600 ha        1 MOL      0.136542
    100 H44         1.8830    9.3720   -1.4250 ha        1 MOL      0.136542
    101 H45        -0.0150   11.5540    0.3330 ho        1 MOL      0.362360
    102 N10         0.2390    2.9290    2.2050 n         1 MOL     -0.790786
    103 C34        -0.3550    1.6950    2.6680 c3        1 MOL     -0.007829
    104 C35        -0.4900    0.6070    1.5790 c         1 MOL      0.647632
    105 O15         0.4620    0.2780    0.8310 o         1 MOL     -0.487746
    106 C36         0.2140    1.4110    4.0880 c3        1 MOL      0.091759
    107 C37         1.6580    0.7530    4.0100 c3        1 MOL      0.116288
    108 C38        -0.7100    0.4410    4.7910 c3        1 MOL     -0.397170
    109 C39         2.3100    0.6230    5.4500 c3        1 MOL     -0.336331
    110 H46        -0.3280    3.7550    2.3700 hn        1 MOL      0.354643
    111 H47        -1.3990    1.9780    2.8420 h1        1 MOL      0.110529
    112 H48         0.1010    2.3560    4.6210 hc        1 MOL      0.080508
    113 H49         2.2830    1.3050    3.3130 hc        1 MOL      0.055123
    114 H50         1.5590   -0.2680    3.6420 hc        1 MOL      0.055123
    115 H51        -0.5210    0.6280    5.8520 hc        1 MOL      0.090449
    116 H52        -1.7110    0.8060    4.6080 hc        1 MOL      0.090449
    117 H53        -0.6500   -0.6110    4.5450 hc        1 MOL      0.090449
    118 H54         2.3670    1.6820    5.7320 hc        1 MOL      0.087531
    119 H55         1.7240   -0.0550    6.0810 hc        1 MOL      0.087531
    120 H56         3.2890    0.1710    5.2990 hc        1 MOL      0.087531
    121 N11        -1.7240    0.0650    1.5060 n         1 MOL     -0.537445
    122 C40        -2.0320   -1.0980    0.6080 c3        1 MOL      0.094948
    123 C41        -3.5210   -1.1160    0.1560 c         1 MOL      0.516218
    124 O16        -3.8980   -1.7590   -0.8190 o         1 MOL     -0.525164
    125 C42        -1.7830   -2.5290    1.2900 c3        1 MOL      0.007208
    126 O17        -1.2560   -3.4700    0.3380 oh        1 MOL     -0.578741
    127 H57        -2.4550    0.4770    2.0690 hn        1 MOL      0.246128
    128 H58        -1.3950   -0.9530   -0.2600 h1        1 MOL      0.081806
    129 H59        -2.7480   -2.9240    1.6260 h1        1 MOL      0.076392
    130 H60        -1.1360   -2.3850    2.1530 h1        1 MOL      0.076392
    131 H61        -1.0530   -4.2700    0.8190 ho        1 MOL      0.429603
    132 N12        -4.3480   -0.3770    0.8460 n         1 MOL     -0.495360
    133 C43        -5.6980   -0.0420    0.4080 c3        1 MOL      0.057472
    134 C44        -5.6220    0.8650   -0.8590 c         1 MOL      0.583671
    135 O18        -4.6510    1.6150   -1.1380 o         1 MOL     -0.562286
    136 C45        -6.5030    0.6150    1.5630 c3        1 MOL     -0.247139
    137 H62        -3.9040    0.1600    1.5740 hn        1 MOL      0.311471
    138 H63        -6.2600   -0.9140    0.0960 h1        1 MOL      0.136187
    139 H64        -6.4670   -0.0950    2.3920 hc        1 MOL      0.091095
    140 H65        -6.1380    1.5930    1.8830 hc        1 MOL      0.091095
    141 H66        -7.5190    0.7360    1.2170 hc        1 MOL      0.091095
    142 N13        -6.6680    0.9180   -1.7090 n         1 MOL     -0.602308
    143 C46        -7.8240    0.0180   -1.8150 c3        1 MOL      0.445901
    144 C47        -8.9750    0.7890   -2.4490 c         1 MOL      0.357206
    145 O19        -8.6730    1.6260   -3.2680 o         1 MOL     -0.486066
    146 C48        -7.3570   -1.1340   -2.6340 c3        1 MOL     -0.153409
    147 H67        -6.7710    1.6340   -2.4160 hn        1 MOL      0.328599
    148 H68        -8.2080   -0.3950   -0.8740 h1        1 MOL     -0.092813
    149 H69        -6.8420   -0.7430   -3.5140 hc        1 MOL      0.037998
    150 H70        -6.6950   -1.8340   -2.1340 hc        1 MOL      0.037998
    151 H71        -8.2080   -1.7010   -3.0120 hc        1 MOL      0.037998
    152 N14       -10.2850    0.4710   -2.1270 n         1 MOL     -0.419883
    153 C49       -10.8410   -0.2280   -0.9480 c3        1 MOL     -0.089296
    154 C50       -10.5060    0.4790    0.4070 c         1 MOL      0.377847
    155 O20       -10.1060   -0.1610    1.4190 o         1 MOL     -0.493405
    156 C51       -12.4150   -0.4160   -1.0840 c3        1 MOL      0.011646
    157 C52       -12.8600   -1.2920    0.0650 c3        1 MOL     -0.284657
    158 C53       -14.3220   -1.7120    0.0140 c         1 MOL      0.709762
    159 O21       -14.6210   -2.7850   -0.5450 o         1 MOL     -0.656955
    160 O22       -15.2650   -1.0710    0.5880 o         1 MOL     -0.656955
    161 H72       -10.9750    1.0830   -2.5440 hn        1 MOL      0.288526
    162 H73       -10.4060   -1.2190   -0.9530 h1        1 MOL      0.138045
    163 H74       -12.5470   -0.9250   -2.0450 hc        1 MOL      0.039846
    164 H75       -12.9190    0.5530   -1.0910 hc        1 MOL      0.039846
    165 H76       -12.7750   -0.6500    0.9480 hc        1 MOL      0.083584
    166 H77       -12.2640   -2.2090    0.0840 hc        1 MOL      0.083584
    167 N15       -10.6560    1.8380    0.4670 n         1 MOL     -0.234641
    168 C54       -10.0020    2.6300    1.5420 c3        1 MOL     -0.173132
    169 H78       -10.7650    3.0520    2.1960 h1        1 MOL      0.092116
    170 H79        -9.3440    1.9830    2.1220 h1        1 MOL      0.092116
    171 H80        -9.4200    3.4360    1.0970 h1        1 MOL      0.092116
    172 H81       -11.2120    2.3310   -0.2190 hn        1 MOL      0.260942
    173 Ca1         2.7550    0.3270   -0.7330 Ca        1 MOL      1.803436
    174 O23         0.9840   -1.8650   -1.2670 oh        1 MOL     -0.865426
    175 H82         0.5220   -2.3950   -0.6270 ho        1 MOL      0.421448
    176 H83         0.3850   -1.8240   -2.0160 ho        1 MOL      0.421448
    177 O24         3.2380    2.4320   -2.4110 oh        1 MOL     -0.865426
    178 H84         2.8200    3.1760   -2.8540 ho        1 MOL      0.421448
    179 H85         3.8060    2.0470   -3.0680 ho        1 MOL      0.421448
    180 O25         0.4820    0.9980   -2.1920 oh        1 MOL     -0.865426
    181 H86         0.3480    0.8400   -3.1260 ho        1 MOL      0.421448
    182 H87        -0.3420    1.3640   -1.8850 ho        1 MOL      0.421448
@<TRIPOS>BOND
     1    1    2 1   
     2    1    4 1   
     3    1    5 1   
     4    1    6 1   
     5    2    3 2   
     6    2    7 1   
     7    7    8 1   
     8    7   15 1   
     9    8    9 1   
    10    8   11 1   
    11    8   16 1   
    12    9   10 2   
    13    9   19 1   
    14   11   12 1   
    15   11   17 1   
    16   11   18 1   
    17   12   13 1   
    18   12   14 1   
    19   19   20 1   
    20   19   28 1   
    21   20   21 1   
    22   20   23 1   
    23   20   29 1   
    24   21   22 2   
    25   21   41 1   
    26   23   24 1   
    27   23   30 1   
    28   23   31 1   
    29   24   25 1   
    30   24   32 1   
    31   24   33 1   
    32   25   26 1   
    33   25   34 1   
    34   25   35 1   
    35   26   27 1   
    36   26   36 1   
    37   26   37 1   
    38   27   38 1   
    39   27   39 1   
    40   27   40 1   
    41   41   42 1   
    42   41   49 1   
    43   42   43 1   
    44   42   45 1   
    45   42   50 1   
    46   43   44 2   
    47   43   53 1   
    48   45   46 1   
    49   45   51 1   
    50   45   52 1   
    51   46   47 1   
    52   46   48 1   
    53   53   54 1   
    54   53   57 1   
    55   54   55 1   
    56   54   58 1   
    57   54   59 1   
    58   55   56 2   
    59   55   60 1   
    60   60   61 1   
    61   60   68 1   
    62   61   62 1   
    63   61   64 1   
    64   61   69 1   
    65   62   63 2   
    66   62   74 1   
    67   64   65 1   
    68   64   70 1   
    69   64   71 1   
    70   65   66 1   
    71   65   67 2   
    72   66   72 1   
    73   66   73 1   
    74   74   75 1   
    75   74   78 1   
    76   75   76 1   
    77   75   79 1   
    78   75   80 1   
    79   76   77 2   
    80   76   81 1   
    81   81   82 1   
    82   81   93 1   
    83   82   83 1   
    84   82   85 1   
    85   82   94 1   
    86   83   84 2   
    87   83  102 1   
    88   85   86 1   
    89   85   95 1   
    90   85   96 1   
    91   86   87 ar  
    92   86   88 ar  
    93   87   89 ar  
    94   87   97 1   
    95   88   90 ar  
    96   88   98 1   
    97   89   91 ar  
    98   89   99 1   
    99   90   91 ar  
   100   90  100 1   
   101   91   92 1   
   102   92  101 1   
   103  102  103 1   
   104  102  110 1   
   105  103  104 1   
   106  103  106 1   
   107  103  111 1   
   108  104  105 2   
   109  104  121 1   
   110  106  107 1   
   111  106  108 1   
   112  106  112 1   
   113  107  109 1   
   114  107  113 1   
   115  107  114 1   
   116  108  115 1   
   117  108  116 1   
   118  108  117 1   
   119  109  118 1   
   120  109  119 1   
   121  109  120 1   
   122  121  122 1   
   123  121  127 1   
   124  122  123 1   
   125  122  125 1   
   126  122  128 1   
   127  123  124 2   
   128  123  132 1   
   129  125  126 1   
   130  125  129 1   
   131  125  130 1   
   132  126  131 1   
   133  132  133 1   
   134  132  137 1   
   135  133  134 1   
   136  133  136 1   
   137  133  138 1   
   138  134  135 2   
   139  134  142 1   
   140  136  139 1   
   141  136  140 1   
   142  136  141 1   
   143  142  143 1   
   144  142  147 1   
   145  143  144 1   
   146  143  146 1   
   147  143  148 1   
   148  144  145 2   
   149  144  152 1   
   150  146  149 1   
   151  146  150 1   
   152  146  151 1   
   153  152  153 1   
   154  152  161 1   
   155  153  154 1   
   156  153  156 1   
   157  153  162 1   
   158  154  155 2   
   159  154  167 1   
   160  156  157 1   
   161  156  163 1   
   162  156  164 1   
   163  157  158 1   
   164  157  165 1   
   165  157  166 1   
   166  158  159 1   
   167  158  160 1   
   168  167  168 1   
   169  167  172 1   
   170  168  169 1   
   171  168  170 1   
   172  168  171 1   
   173  174  175 1   
   174  174  176 1   
   175  177  178 1   
   176  177  179 1   
   177  180  181 1   
   178  180  182 1   
@<TRIPOS>SUBSTRUCTURE
     1 MOL         1 TEMP              0 ****  ****    0 ROOT
