@<TRIPOS>MOLECULE
MOL
  192   187     1     0     0
SMALL
resp


@<TRIPOS>ATOM
      1 C1          5.9550   -5.2120   -3.1460 c3        1 MOL     -0.270581
      2 C2          5.5740   -3.9910   -2.3020 c         1 MOL      0.616684
      3 O1          5.6640   -4.0400   -1.0780 o         1 MOL     -0.521232
      4 H1          5.8100   -4.9830   -4.2020 hc        1 MOL      0.073454
      5 H2          7.0010   -5.4650   -2.9690 hc        1 MOL      0.073454
      6 H3          5.3240   -6.0570   -2.8690 hc        1 MOL      0.073454
      7 N1          5.2810   -2.8240   -2.9090 n         1 MOL     -0.438810
      8 C3          4.8540   -1.5710   -2.1260 c3        1 MOL      0.075864
      9 C4          3.3760   -1.4940   -1.9340 c         1 MOL      0.125069
     10 O2          2.9620   -0.6210   -1.1920 o         1 MOL     -0.145417
     11 C5          5.3920   -0.3640   -2.8170 c3        1 MOL     -0.067359
     12 C6          5.2480   -0.2610   -4.3740 c         1 MOL      0.639874
     13 O3          4.4480    0.5900   -4.8070 o         1 MOL     -0.688477
     14 O4          6.0050   -1.0080   -5.0100 o         1 MOL     -0.688477
     15 H4          5.2440   -2.8330   -3.9100 hn        1 MOL      0.287943
     16 H5          5.1930   -1.4220   -1.0930 h1        1 MOL      0.099706
     17 H6          6.4520   -0.3230   -2.5910 hc        1 MOL      0.046175
     18 H7          4.9100    0.5360   -2.4300 hc        1 MOL      0.046175
     19 N2          2.5560   -2.2590   -2.6620 n         1 MOL     -0.119725
     20 C7          1.1240   -2.3050   -2.4140 c3        1 MOL     -0.000176
     21 C8          0.8320   -3.2430   -1.2450 c         1 MOL      0.435626
     22 O5          1.3510   -4.3190   -1.1380 o         1 MOL     -0.521275
     23 C9          0.3990   -2.7880   -3.6890 c3        1 MOL     -0.192121
     24 C10         0.0880   -1.7000   -4.7380 c3        1 MOL     -0.092653
     25 C11         1.4170   -1.1050   -5.3120 c3        1 MOL     -0.026707
     26 C12         1.1310    0.1010   -6.2300 c3        1 MOL      0.115322
     27 N3          2.3730    0.6010   -6.9340 n4        1 MOL     -0.301734
     28 H8          3.0630   -2.8980   -3.2560 hn        1 MOL      0.203887
     29 H9          0.7570   -1.3200   -2.1380 h1        1 MOL      0.060688
     30 H10        -0.6210   -3.1420   -3.4810 hc        1 MOL      0.103743
     31 H11         0.9470   -3.6060   -4.1390 hc        1 MOL      0.103743
     32 H12        -0.5200   -0.9020   -4.3030 hc        1 MOL      0.063588
     33 H13        -0.6050   -1.9880   -5.5300 hc        1 MOL      0.063588
     34 H14         1.9990   -1.9170   -5.7510 hc        1 MOL      0.007962
     35 H15         2.0440   -0.6520   -4.5450 hc        1 MOL      0.007962
     36 H16         0.7370    0.8720   -5.5680 hx        1 MOL      0.036271
     37 H17         0.4250   -0.1510   -7.0080 hx        1 MOL      0.036271
     38 H18         2.3110    1.4540   -7.4650 hn        1 MOL      0.288243
     39 H19         3.1260    0.7600   -6.2680 hn        1 MOL      0.288243
     40 H20         2.6800   -0.1480   -7.5390 hn        1 MOL      0.288243
     41 N4         -0.1780   -2.9700   -0.4440 n         1 MOL     -0.351337
     42 C13        -0.8650   -1.7000   -0.1630 c3        1 MOL      0.017820
     43 C14        -1.4600   -0.9200   -1.3460 c         1 MOL      0.521277
     44 O6         -0.9660    0.1620   -1.8060 o         1 MOL     -0.549130
     45 C15         0.0750   -0.8580    0.7000 c3        1 MOL     -0.294090
     46 C16         0.5010   -1.4200    2.0800 c         1 MOL      0.828773
     47 O7          0.3780   -2.5470    2.4630 o         1 MOL     -0.804506
     48 O8          0.8840   -0.6480    2.9520 o         1 MOL     -0.804506
     49 H21        -0.3290   -3.7810    0.1540 hn        1 MOL      0.294124
     50 H22        -1.6450   -2.0540    0.5210 h1        1 MOL      0.038567
     51 H23        -0.3320    0.1400    0.8530 hc        1 MOL      0.068918
     52 H24         0.9800   -0.7270    0.0990 hc        1 MOL      0.068918
     53 N5         -2.5190   -1.3980   -2.0260 n         1 MOL     -0.494997
     54 C17        -3.3660   -2.5060   -1.4240 c3        1 MOL      0.210663
     55 C18        -4.3860   -3.0630   -2.4390 c         1 MOL      0.467371
     56 O9         -4.2360   -2.7840   -3.6800 o         1 MOL     -0.543848
     57 H25        -2.8830   -0.7940   -2.7520 hn        1 MOL      0.330790
     58 H26        -3.8020   -2.1200   -0.5030 h1        1 MOL      0.026259
     59 H27        -2.7330   -3.3600   -1.1700 h1        1 MOL      0.026259
     60 N6         -5.4250   -3.8000   -1.9770 n         1 MOL     -0.496413
     61 C19        -5.7290   -4.2090   -0.6240 c3        1 MOL      0.152637
     62 C20        -6.7920   -3.2910    0.1670 c         1 MOL      0.386234
     63 O10        -7.8740   -3.0630   -0.3840 o         1 MOL     -0.460701
     64 C21        -6.0410   -5.6750   -0.6080 c3        1 MOL     -0.088639
     65 C22        -7.2130   -6.1460   -1.4840 c         1 MOL      0.719547
     66 O11        -7.9890   -7.0390   -0.9510 o         1 MOL     -0.704743
     67 O12        -7.2670   -5.7400   -2.6460 o         1 MOL     -0.704743
     68 H28        -6.0510   -4.1720   -2.6740 hn        1 MOL      0.350266
     69 H29        -4.7990   -4.2010   -0.0520 h1        1 MOL     -0.047212
     70 H30        -6.2230   -5.9690    0.4240 hc        1 MOL     -0.011708
     71 H31        -5.1810   -6.2100   -1.0150 hc        1 MOL     -0.011708
     72 N7         -6.5130   -2.9740    1.4300 n         1 MOL     -0.161538
     73 C23        -7.3610   -2.2480    2.3460 c3        1 MOL     -0.406988
     74 C24        -7.0590   -0.7220    2.4740 c         1 MOL      0.536491
     75 O13        -7.7630   -0.0160    3.2440 o         1 MOL     -0.552756
     76 H32        -5.5640   -3.2040    1.7170 hn        1 MOL      0.206347
     77 H33        -7.2290   -2.7050    3.3280 h1        1 MOL      0.188298
     78 H34        -8.3520   -2.3270    1.9060 h1        1 MOL      0.188298
     79 N8         -6.0790   -0.2310    1.7200 n         1 MOL     -0.193137
     80 C25        -5.5240    1.1420    1.7520 c3        1 MOL     -0.217837
     81 C26        -5.1600    1.7630    0.4360 c         1 MOL      0.649307
     82 O14        -4.9970    1.0770   -0.5650 o         1 MOL     -0.471775
     83 C27        -4.3640    1.2520    2.7850 c3        1 MOL      0.228322
     84 C28        -3.1270    0.5890    2.2030 c3        1 MOL     -0.177810
     85 O15        -4.6460    0.5680    4.0560 oh        1 MOL     -0.597449
     86 H35        -5.5670   -0.8370    1.0900 hn        1 MOL      0.134505
     87 H36        -6.3640    1.7630    2.0630 h1        1 MOL      0.105130
     88 H37        -4.0350    2.2710    2.9750 h1        1 MOL      0.017214
     89 H38        -5.3090    1.0730    4.5280 ho        1 MOL      0.388967
     90 H39        -2.2570    0.4670    2.8570 hc        1 MOL      0.087227
     91 H40        -3.4480   -0.3600    1.7820 hc        1 MOL      0.087227
     92 H41        -2.7840    1.2130    1.3730 hc        1 MOL      0.087227
     93 N9         -5.2620    3.1200    0.3870 n         1 MOL     -0.652384
     94 C29        -5.3090    3.8740   -0.8770 c3        1 MOL      0.071011
     95 C30        -4.0190    4.4900   -1.1810 c         1 MOL      0.550313
     96 O16        -3.5140    4.3050   -2.2910 o         1 MOL     -0.535112
     97 C31        -6.5630    4.8490   -0.7200 c3        1 MOL      0.010806
     98 C32        -7.8780    4.3060   -0.0670 c3        1 MOL      0.104090
     99 C33        -6.9370    5.4790   -2.0510 c3        1 MOL     -0.258926
    100 C34        -9.0660    5.2000    0.2220 c3        1 MOL     -0.382271
    101 H42        -5.4430    3.7340    1.1670 hn        1 MOL      0.320338
    102 H43        -5.4920    3.2210   -1.7290 h1        1 MOL      0.095986
    103 H44        -6.2450    5.6740   -0.0730 hc        1 MOL     -0.001147
    104 H45        -7.6600    3.9400    0.9340 hc        1 MOL      0.037689
    105 H46        -8.2740    3.4550   -0.6160 hc        1 MOL      0.037689
    106 H47        -7.7520    6.1970   -1.9990 hc        1 MOL      0.075903
    107 H48        -6.1570    5.7800   -2.7610 hc        1 MOL      0.075903
    108 H49        -7.4360    4.6860   -2.6020 hc        1 MOL      0.075903
    109 H50        -9.7850    4.7310    0.8990 hc        1 MOL      0.101851
    110 H51        -8.7140    6.1080    0.7150 hc        1 MOL      0.101851
    111 H52        -9.5550    5.3710   -0.7340 hc        1 MOL      0.101851
    112 N10        -3.2890    5.1660   -0.2470 n         1 MOL     -0.381614
    113 C35        -1.8180    5.3230   -0.4090 c3        1 MOL      0.035879
    114 C36        -0.9880    4.0370   -0.1670 c         1 MOL      0.723362
    115 O17        -1.2720    3.3340    0.8240 o         1 MOL     -0.573872
    116 C37        -1.2320    6.4570    0.4440 c3        1 MOL      0.150062
    117 C38        -1.8860    6.5130    1.7970 c3        1 MOL     -0.174821
    118 O18        -1.5670    7.7120   -0.1400 oh        1 MOL     -0.614718
    119 H53        -3.6470    5.2560    0.6920 hn        1 MOL      0.238871
    120 H54        -1.7120    5.6100   -1.4480 h1        1 MOL      0.109820
    121 H55        -0.1390    6.3710    0.5120 h1        1 MOL      0.052993
    122 H56        -1.0500    8.3200    0.3990 ho        1 MOL      0.394105
    123 H57        -2.9600    6.6420    1.6810 hc        1 MOL      0.046109
    124 H58        -1.7680    5.5220    2.2420 hc        1 MOL      0.046109
    125 H59        -1.4620    7.2640    2.4700 hc        1 MOL      0.046109
    126 N11        -0.0810    3.7160   -1.1460 n         1 MOL     -0.707838
    127 C39         0.8580    2.5720   -0.9730 c3        1 MOL      0.013045
    128 C40         2.0840    2.9130   -0.1080 c         1 MOL      0.532090
    129 O19         2.2010    4.0550    0.3410 o         1 MOL     -0.582197
    130 C41         1.3400    2.1330   -2.4110 c3        1 MOL      0.828005
    131 C42         2.4040    3.0330   -2.9860 c3        1 MOL     -0.622830
    132 O20         0.2920    2.0150   -3.2490 oh        1 MOL     -0.707168
    133 H60        -0.0570    4.2480   -2.0050 hn        1 MOL      0.310568
    134 H61         0.2620    1.8090   -0.4700 h1        1 MOL      0.137527
    135 H62         1.7940    1.1560   -2.2790 h1        1 MOL     -0.010472
    136 H63        -0.3880    1.4790   -2.8460 ho        1 MOL      0.390900
    137 H64         3.3660    2.7180   -2.5800 hc        1 MOL      0.139112
    138 H65         2.3950    2.8070   -4.0490 hc        1 MOL      0.139112
    139 H66         2.1790    4.0700   -2.7460 hc        1 MOL      0.139112
    140 N12         3.0520    1.9840    0.0000 n         1 MOL     -0.226312
    141 C43         4.3300    2.3030    0.6970 c3        1 MOL     -0.039394
    142 C44         4.8450    1.1960    1.5820 c         1 MOL      0.558802
    143 O21         5.3160    1.4890    2.6780 o         1 MOL     -0.611852
    144 C45         5.3860    2.7890   -0.3070 c3        1 MOL     -0.089392
    145 C46         6.7690    3.3680    0.1870 c3        1 MOL      0.030102
    146 C47         6.7200    4.8350    0.5740 c3        1 MOL     -0.140231
    147 C48         8.0980    5.3690    0.9200 c3        1 MOL      0.212759
    148 N13         7.9290    6.7050    1.5300 n4        1 MOL     -0.428256
    149 H67         2.9860    1.1780   -0.6160 hn        1 MOL     -0.188986
    150 H68         4.0650    3.0920    1.4010 h1        1 MOL      0.108017
    151 H69         4.9430    3.5250   -0.9800 hc        1 MOL      0.055119
    152 H70         5.6770    1.9540   -0.9330 hc        1 MOL      0.055119
    153 H71         7.4530    3.2690   -0.6570 hc        1 MOL      0.024636
    154 H72         7.1250    2.6610    0.9400 hc        1 MOL      0.024636
    155 H73         6.0620    4.9220    1.4390 hc        1 MOL      0.053463
    156 H74         6.3610    5.3780   -0.3040 hc        1 MOL      0.053463
    157 H75         8.6960    5.4420    0.0140 hx        1 MOL      0.045274
    158 H76         8.6540    4.6900    1.5630 hx        1 MOL      0.045274
    159 H77         7.5330    6.4780    2.4380 hn        1 MOL      0.337504
    160 H78         8.7660    7.2610    1.5570 hn        1 MOL      0.337504
    161 H79         7.2330    7.2620    1.0600 hn        1 MOL      0.337504
    162 N14         4.6370   -0.0770    1.2490 n         1 MOL     -0.086876
    163 C49         5.0650   -1.2390    2.1080 c3        1 MOL     -0.252986
    164 C50         6.6060   -1.4910    1.9820 c         1 MOL      0.558391
    165 O22         7.0370   -1.5050    0.7900 o         1 MOL     -0.524797
    166 C51         4.1040   -2.5370    2.0120 c3        1 MOL      0.642580
    167 C52         4.4530   -3.6130    3.0440 c3        1 MOL     -0.812939
    168 C53         4.4180   -3.1350    4.4950 c         1 MOL      0.904253
    169 O23         3.3030   -2.8220    4.8900 o         1 MOL     -0.807419
    170 O24         5.4470   -2.7170    5.0360 o         1 MOL     -0.807419
    171 H80         4.2300   -0.2660    0.3480 hn        1 MOL     -0.017979
    172 H81         4.9680   -0.8940    3.1460 h1        1 MOL      0.113969
    173 H82         4.2750   -2.9670    1.0260 hc        1 MOL     -0.081408
    174 H83         3.0920   -2.2060    2.2450 hc        1 MOL     -0.081408
    175 H84         5.4820   -3.9140    2.8920 hc        1 MOL      0.175359
    176 H85         3.7360   -4.4470    3.0640 hc        1 MOL      0.175359
    177 N15         7.3580   -1.8460    3.0400 n         1 MOL     -0.539513
    178 C54         8.7790   -2.1540    2.8500 c3        1 MOL     -0.047152
    179 H86         9.2370   -2.3630    3.8160 h1        1 MOL      0.063737
    180 H87         8.8790   -3.0260    2.2040 h1        1 MOL      0.063737
    181 H88         9.2770   -1.3010    2.3890 h1        1 MOL      0.063737
    182 H89         6.9060   -2.0760    3.9140 hn        1 MOL      0.483862
    183 Ca1         0.8890   -2.3150    4.9440 Ca        1 MOL      1.770888
    184 O25        -1.5930   -3.2600    4.8020 oh        1 MOL     -0.847982
    185 H90        -2.4470   -2.8280    4.7790 ho        1 MOL      0.425436
    186 H91        -1.7990   -4.1850    4.7300 ho        1 MOL      0.425436
    187 O26        -1.0670   -0.7420    6.1520 oh        1 MOL     -0.847982
    188 H92        -1.1990   -0.8530    7.0990 ho        1 MOL      0.425436
    189 H93        -1.7060   -0.0770    5.8920 ho        1 MOL      0.425436
    190 O27         1.7010    0.3980    5.9160 oh        1 MOL     -0.847982
    191 H94         1.2070    1.2060    5.8230 ho        1 MOL      0.425436
    192 H95         2.6090    0.6670    5.7680 ho        1 MOL      0.425436
@<TRIPOS>BOND
     1    1    2 1   
     2    1    4 1   
     3    1    5 1   
     4    1    6 1   
     5    2    3 2   
     6    2    7 1   
     7    7    8 1   
     8    7   15 1   
     9    8    9 1   
    10    8   11 1   
    11    8   16 1   
    12    9   10 2   
    13    9   19 1   
    14   11   12 1   
    15   11   17 1   
    16   11   18 1   
    17   12   13 1   
    18   12   14 1   
    19   19   20 1   
    20   19   28 1   
    21   20   21 1   
    22   20   23 1   
    23   20   29 1   
    24   21   22 2   
    25   21   41 1   
    26   23   24 1   
    27   23   30 1   
    28   23   31 1   
    29   24   25 1   
    30   24   32 1   
    31   24   33 1   
    32   25   26 1   
    33   25   34 1   
    34   25   35 1   
    35   26   27 1   
    36   26   36 1   
    37   26   37 1   
    38   27   38 1   
    39   27   39 1   
    40   27   40 1   
    41   41   42 1   
    42   41   49 1   
    43   42   43 1   
    44   42   45 1   
    45   42   50 1   
    46   43   44 2   
    47   43   53 1   
    48   45   46 1   
    49   45   51 1   
    50   45   52 1   
    51   46   47 1   
    52   46   48 1   
    53   53   54 1   
    54   53   57 1   
    55   54   55 1   
    56   54   58 1   
    57   54   59 1   
    58   55   56 2   
    59   55   60 1   
    60   60   61 1   
    61   60   68 1   
    62   61   62 1   
    63   61   64 1   
    64   61   69 1   
    65   62   63 2   
    66   62   72 1   
    67   64   65 1   
    68   64   70 1   
    69   64   71 1   
    70   65   66 1   
    71   65   67 1   
    72   72   73 1   
    73   72   76 1   
    74   73   74 1   
    75   73   77 1   
    76   73   78 1   
    77   74   75 2   
    78   74   79 1   
    79   79   80 1   
    80   79   86 1   
    81   80   81 1   
    82   80   83 1   
    83   80   87 1   
    84   81   82 2   
    85   81   93 1   
    86   83   84 1   
    87   83   85 1   
    88   83   88 1   
    89   84   90 1   
    90   84   91 1   
    91   84   92 1   
    92   85   89 1   
    93   93   94 1   
    94   93  101 1   
    95   94   95 1   
    96   94   97 1   
    97   94  102 1   
    98   95   96 2   
    99   95  112 1   
   100   97   98 1   
   101   97   99 1   
   102   97  103 1   
   103   98  100 1   
   104   98  104 1   
   105   98  105 1   
   106   99  106 1   
   107   99  107 1   
   108   99  108 1   
   109  100  109 1   
   110  100  110 1   
   111  100  111 1   
   112  112  113 1   
   113  112  119 1   
   114  113  114 1   
   115  113  116 1   
   116  113  120 1   
   117  114  115 2   
   118  114  126 1   
   119  116  117 1   
   120  116  118 1   
   121  116  121 1   
   122  117  123 1   
   123  117  124 1   
   124  117  125 1   
   125  118  122 1   
   126  126  127 1   
   127  126  133 1   
   128  127  128 1   
   129  127  130 1   
   130  127  134 1   
   131  128  129 2   
   132  128  140 1   
   133  130  131 1   
   134  130  132 1   
   135  130  135 1   
   136  131  137 1   
   137  131  138 1   
   138  131  139 1   
   139  132  136 1   
   140  140  141 1   
   141  140  149 1   
   142  141  142 1   
   143  141  144 1   
   144  141  150 1   
   145  142  143 2   
   146  142  162 1   
   147  144  145 1   
   148  144  151 1   
   149  144  152 1   
   150  145  146 1   
   151  145  153 1   
   152  145  154 1   
   153  146  147 1   
   154  146  155 1   
   155  146  156 1   
   156  147  148 1   
   157  147  157 1   
   158  147  158 1   
   159  148  159 1   
   160  148  160 1   
   161  148  161 1   
   162  162  163 1   
   163  162  171 1   
   164  163  164 1   
   165  163  166 1   
   166  163  172 1   
   167  164  165 2   
   168  164  177 1   
   169  166  167 1   
   170  166  173 1   
   171  166  174 1   
   172  167  168 1   
   173  167  175 1   
   174  167  176 1   
   175  168  169 1   
   176  168  170 1   
   177  177  178 1   
   178  177  182 1   
   179  178  179 1   
   180  178  180 1   
   181  178  181 1   
   182  184  185 1   
   183  184  186 1   
   184  187  188 1   
   185  187  189 1   
   186  190  191 1   
   187  190  192 1   
@<TRIPOS>SUBSTRUCTURE
     1 MOL         1 TEMP              0 ****  ****    0 ROOT
