@<TRIPOS>MOLECULE
MOL
  192   187     1     0     0
SMALL
resp


@<TRIPOS>ATOM
      1 C1          3.9130    3.8940   -3.6770 c3        1 MOL     -0.567126
      2 C2          4.6910    3.2830   -2.4470 c         1 MOL      0.721940
      3 O1          4.1340    2.9440   -1.4030 o         1 MOL     -0.546814
      4 H1          4.5790    3.9490   -4.5370 hc        1 MOL      0.150090
      5 H2          3.0590    3.2610   -3.9180 hc        1 MOL      0.150090
      6 H3          3.5630    4.8950   -3.4250 hc        1 MOL      0.150090
      7 N1          5.9940    2.9570   -2.5930 n         1 MOL     -0.538323
      8 C3          6.7800    1.9860   -1.7920 c3        1 MOL      0.147618
      9 C4          6.0110    0.6800   -1.4140 c         1 MOL      0.430238
     10 O2          5.6460    0.4360   -0.2340 o         1 MOL     -0.727274
     11 C5          7.5080    2.7120   -0.6050 c3        1 MOL     -0.046279
     12 C6          6.7420    3.8170    0.0970 c         1 MOL      0.722377
     13 O3          5.9050    3.5100    1.0010 o         1 MOL     -0.730560
     14 O4          6.9090    4.9720   -0.2550 o         1 MOL     -0.730560
     15 H4          6.3880    3.3270   -3.4400 hn        1 MOL      0.278318
     16 H5          7.5580    1.6370   -2.4610 h1        1 MOL      0.039820
     17 H6          8.4260    3.1590   -0.9820 hc        1 MOL      0.001286
     18 H7          7.8190    2.0680    0.2110 hc        1 MOL      0.001286
     19 N2          5.7220   -0.0620   -2.4820 n         1 MOL     -0.406929
     20 C7          5.1520   -1.4440   -2.4920 c3        1 MOL      0.110145
     21 C8          5.9050   -2.5610   -1.8330 c         1 MOL      0.398418
     22 O5          6.2080   -3.5290   -2.4610 o         1 MOL     -0.556492
     23 C9          3.5720   -1.5030   -2.2160 c3        1 MOL      0.271253
     24 C10         2.9550   -2.8690   -2.6520 c3        1 MOL     -0.076387
     25 C11         2.8260   -0.3660   -2.7620 c3        1 MOL     -0.195464
     26 C12         3.0740   -3.1760   -4.1670 c3        1 MOL     -0.240398
     27 H8          5.8540    0.4060   -3.3660 hn        1 MOL      0.254861
     28 H9          5.1550   -1.6770   -3.5590 h1        1 MOL      0.028390
     29 H10         3.4850   -1.3780   -1.1400 hc        1 MOL     -0.108122
     30 H11         1.9300   -2.8650   -2.2930 hc        1 MOL      0.058127
     31 H12         3.4470   -3.6800   -2.1140 hc        1 MOL      0.058127
     32 H13         3.2400    0.5450   -2.3260 hc        1 MOL      0.029017
     33 H14         3.0690   -0.1220   -3.7940 hc        1 MOL      0.029017
     34 H15         1.7680   -0.4800   -2.5320 hc        1 MOL      0.029017
     35 H16         2.4670   -4.0740   -4.2580 hc        1 MOL      0.046667
     36 H17         2.6830   -2.4470   -4.8860 hc        1 MOL      0.046667
     37 H18         4.1010   -3.4540   -4.3770 hc        1 MOL      0.046667
     38 N3          6.3800   -2.3540   -0.6550 n         1 MOL     -0.183455
     39 C13         7.2270   -3.2810    0.0640 c3        1 MOL     -0.038348
     40 C14         6.4950   -4.6310    0.3970 c         1 MOL      0.560839
     41 O6          7.1600   -5.6480    0.5320 o         1 MOL     -0.595495
     42 C15         7.6460   -2.5890    1.4730 c3        1 MOL     -0.270317
     43 C16         8.0520   -1.1460    1.3460 c         1 MOL      0.750469
     44 O7          8.8290   -0.8750    0.3890 o         1 MOL     -0.693561
     45 O8          7.6820   -0.3240    2.2220 o         1 MOL     -0.693561
     46 H19         6.0190   -1.5520   -0.1600 hn        1 MOL      0.320525
     47 H20         8.1920   -3.4760   -0.4120 h1        1 MOL      0.079941
     48 H21         8.4360   -3.2050    1.9050 hc        1 MOL      0.079180
     49 H22         6.7410   -2.6590    2.0730 hc        1 MOL      0.079180
     50 N4          5.1930   -4.6690    0.6140 n         1 MOL     -0.514450
     51 C17         4.1860   -3.6470    0.8760 c3        1 MOL      0.354875
     52 C18         2.9660   -4.3110    1.5490 c         1 MOL      0.539571
     53 O9          2.7060   -5.4600    1.2760 o         1 MOL     -0.579200
     54 H23         4.9890   -5.6280    0.8490 hn        1 MOL      0.272687
     55 H24         3.9760   -3.1130   -0.0410 h1        1 MOL     -0.066356
     56 H25         4.5300   -2.9690    1.6700 h1        1 MOL     -0.066356
     57 N5          2.1580   -3.6850    2.4680 n         1 MOL     -0.559981
     58 C19         2.2080   -2.3310    3.0050 c3        1 MOL      0.360164
     59 C20         2.2710   -1.1910    1.9580 c         1 MOL     -0.025499
     60 O10         3.2580   -0.5110    1.9040 o         1 MOL     -0.233593
     61 C21         3.2630   -2.3620    4.1280 c3        1 MOL     -0.424382
     62 C22         3.2400   -1.1490    5.1320 c         1 MOL      0.705831
     63 O11         4.0550   -1.1320    6.0400 o         1 MOL     -0.686023
     64 O12         2.4430   -0.2150    4.9820 o         1 MOL     -0.686023
     65 H26         1.2930   -4.1740    2.6120 hn        1 MOL      0.305775
     66 H27         1.2760   -2.2400    3.5610 h1        1 MOL      0.032321
     67 H28         4.2930   -2.3210    3.7650 hc        1 MOL      0.095025
     68 H29         3.1220   -3.2810    4.6930 hc        1 MOL      0.095025
     69 N6          1.2210   -0.9280    1.1340 n         1 MOL      0.010936
     70 C23        -0.1250   -1.4670    1.3170 c3        1 MOL     -0.213424
     71 C24        -0.3750   -2.8040    0.6100 c         1 MOL      0.434397
     72 O13         0.5220   -3.3390    0.0120 o         1 MOL     -0.475172
     73 H30         1.3790   -0.1520    0.5160 hn        1 MOL      0.136143
     74 H31        -0.7690   -0.6820    0.9140 h1        1 MOL      0.082446
     75 H32        -0.3730   -1.6910    2.3530 h1        1 MOL      0.082446
     76 N7         -1.6110   -3.3860    0.7360 n         1 MOL     -0.284311
     77 C25        -2.0240   -4.7020    0.1730 c3        1 MOL     -0.136471
     78 C26        -2.7430   -4.6100   -1.2220 c         1 MOL      0.408568
     79 O14        -3.1240   -5.5910   -1.8310 o         1 MOL     -0.514401
     80 C27        -2.9450   -5.4250    1.1850 c3        1 MOL      0.091949
     81 C28        -4.4320   -5.0040    1.1580 c3        1 MOL     -0.229320
     82 C29        -4.5620   -3.5600    1.7450 c         1 MOL      0.408568
     83 N8         -4.5730   -3.3730    3.0200 n         1 MOL     -0.591480
     84 O15        -4.5190   -2.5640    0.9990 o         1 MOL     -0.471581
     85 H33        -2.2840   -2.9280    1.3240 hn        1 MOL      0.244987
     86 H34        -1.1760   -5.3710    0.0880 h1        1 MOL      0.160237
     87 H35        -2.5470   -5.2630    2.1910 hc        1 MOL     -0.005225
     88 H36        -2.9830   -6.5080    1.0200 hc        1 MOL     -0.005225
     89 H37        -4.9160   -5.7590    1.7700 hc        1 MOL      0.119701
     90 H38        -4.7290   -5.1200    0.1140 hc        1 MOL      0.119701
     91 H39        -4.6440   -4.1930    3.6020 hn        1 MOL      0.339473
     92 H40        -4.5980   -2.4360    3.3890 hn        1 MOL      0.339473
     93 N9         -2.8810   -3.3770   -1.7180 n         1 MOL     -0.145747
     94 C30        -3.3660   -3.0380   -3.0430 c3        1 MOL     -0.055646
     95 C31        -4.6900   -2.2180   -3.1130 c         1 MOL      0.467662
     96 O16        -5.2000   -1.9340   -4.1610 o         1 MOL     -0.547073
     97 C32        -2.2550   -2.3100   -3.9020 c3        1 MOL      0.230490
     98 C33        -0.8420   -2.8460   -3.9680 c3        1 MOL     -0.189051
     99 C34        -2.0580   -0.8390   -3.6300 c3        1 MOL     -0.189051
    100 H41        -2.5800   -2.6400   -1.1010 hn        1 MOL      0.191890
    101 H42        -3.5910   -3.9830   -3.5380 h1        1 MOL      0.081033
    102 H43        -2.6410   -2.3700   -4.9210 hc        1 MOL     -0.031985
    103 H44        -0.3380   -2.6770   -3.0150 hc        1 MOL      0.041590
    104 H45        -0.8450   -3.9160   -4.1500 hc        1 MOL      0.041590
    105 H46        -0.3770   -2.2760   -4.7750 hc        1 MOL      0.041590
    106 H47        -1.3360   -0.3800   -4.3010 hc        1 MOL      0.041590
    107 H48        -3.0090   -0.3150   -3.6380 hc        1 MOL      0.041590
    108 H49        -1.6980   -0.7000   -2.6160 hc        1 MOL      0.041590
    109 N10        -5.2330   -1.7720   -1.9720 n         1 MOL     -0.233546
    110 C35        -6.6030   -1.2290   -1.8370 c3        1 MOL     -0.039240
    111 C36        -6.5830    0.2320   -1.3420 c         1 MOL      0.649632
    112 O17        -7.5210    0.9640   -1.6580 o         1 MOL     -0.586550
    113 C37        -7.5310   -2.1570   -1.0030 c3        1 MOL     -0.385948
    114 C38        -7.5810   -3.5740   -1.4460 c         1 MOL      0.670499
    115 N11        -7.7950   -3.8990   -2.6930 n         1 MOL     -0.761857
    116 O18        -7.3020   -4.4080   -0.5720 o         1 MOL     -0.594787
    117 H50        -4.7810   -1.9110   -1.0750 hn        1 MOL      0.142794
    118 H51        -7.0430   -1.0800   -2.8120 h1        1 MOL      0.087277
    119 H52        -8.5490   -1.7630   -0.9770 hc        1 MOL      0.154904
    120 H53        -7.1580   -2.1960    0.0160 hc        1 MOL      0.154904
    121 H54        -7.9800   -3.1870   -3.3800 hn        1 MOL      0.367203
    122 H55        -7.8400   -4.8690   -2.9990 hn        1 MOL      0.367203
    123 N12        -5.5800    0.6860   -0.6200 n         1 MOL     -0.470893
    124 C39        -5.6450    1.8700    0.2750 c3        1 MOL      0.148911
    125 C40        -4.3200    2.6330    0.2940 c         1 MOL      0.432728
    126 O19        -3.3150    1.9600    0.1760 o         1 MOL     -0.457746
    127 C41        -5.9660    1.5360    1.7770 c3        1 MOL     -0.145055
    128 C42        -7.2970    0.8910    2.1760 ca        1 MOL      0.067291
    129 C43        -8.3310    1.6990    2.6640 ca        1 MOL     -0.122789
    130 C44        -7.5050   -0.4870    2.0990 ca        1 MOL     -0.122789
    131 C45        -9.5720    1.1980    3.0470 ca        1 MOL     -0.304685
    132 C46        -8.7510   -1.0350    2.5000 ca        1 MOL     -0.304685
    133 C47        -9.7580   -0.2270    3.0180 ca        1 MOL      0.358117
    134 O20       -11.0230   -0.6820    3.3030 oh        1 MOL     -0.513739
    135 H56        -4.8350    0.0240   -0.4680 hn        1 MOL      0.211833
    136 H57        -6.3960    2.5110   -0.1790 h1        1 MOL      0.040362
    137 H58        -5.7570    2.3670    2.4340 hc        1 MOL      0.088848
    138 H59        -5.1970    0.8180    2.0690 hc        1 MOL      0.088848
    139 H60        -8.1650    2.7630    2.5820 ha        1 MOL      0.115200
    140 H61        -6.7560   -1.1420    1.6870 ha        1 MOL      0.115200
    141 H62       -10.3310    1.9090    3.3340 ha        1 MOL      0.150416
    142 H63        -8.9780   -2.0760    2.3030 ha        1 MOL      0.150416
    143 H64       -11.5340    0.0770    3.6230 ho        1 MOL      0.363375
    144 N13        -4.4020    3.9790    0.2670 n         1 MOL     -0.474278
    145 C48        -3.2680    4.9660    0.3440 c3        1 MOL      0.015175
    146 C49        -2.2450    4.9730   -0.8530 c         1 MOL      0.265830
    147 O21        -1.6490    6.0480   -1.0490 o         1 MOL     -0.455661
    148 C50        -2.5690    4.8790    1.7840 c3        1 MOL      0.087395
    149 C51        -3.5110    5.2270    2.9980 c3        1 MOL     -0.192523
    150 C52        -2.7560    5.5350    4.1940 c         1 MOL      0.659725
    151 O22        -2.4080    6.7480    4.3760 o         1 MOL     -0.717505
    152 O23        -2.3820    4.5910    4.9590 o         1 MOL     -0.717505
    153 H65        -5.3470    4.3330    0.3220 hn        1 MOL      0.296774
    154 H66        -3.7810    5.9310    0.2900 h1        1 MOL      0.086249
    155 H67        -1.7460    5.6030    1.7260 hc        1 MOL      0.064023
    156 H68        -2.1640    3.8690    1.8670 hc        1 MOL      0.064023
    157 H69        -4.2260    4.4130    3.0670 hc        1 MOL     -0.009816
    158 H70        -4.1060    6.1270    2.8030 hc        1 MOL     -0.009816
    159 N14        -2.0120    3.8520   -1.5900 n         1 MOL     -0.210094
    160 C53        -0.9600    3.8430   -2.5730 c3        1 MOL     -0.078655
    161 C54        -1.4000    4.6730   -3.7710 c         1 MOL      0.392015
    162 O24        -0.5580    5.2210   -4.5630 o         1 MOL     -0.527493
    163 C55        -0.5140    2.3720   -2.9460 c3        1 MOL     -0.001754
    164 C56        -0.2320    1.4570   -1.7930 c3        1 MOL      0.287857
    165 C57         0.7840    2.0520   -0.7780 c         1 MOL      0.462881
    166 O25         0.4580    3.0350   -0.1040 o         1 MOL     -0.562038
    167 O26         1.8860    1.4570   -0.5560 o         1 MOL     -0.562038
    168 H71        -2.3030    2.9590   -1.2270 hn        1 MOL      0.222537
    169 H72        -0.0660    4.3190   -2.1830 h1        1 MOL      0.149108
    170 H73         0.3800    2.4000   -3.5630 hc        1 MOL     -0.029806
    171 H74        -1.4360    1.9580   -3.3660 hc        1 MOL     -0.029806
    172 H75         0.0260    0.4680   -2.1810 hc        1 MOL     -0.071205
    173 H76        -1.0780    1.3850   -1.1120 hc        1 MOL     -0.071205
    174 N15        -2.7370    4.8500   -4.0070 n         1 MOL     -0.126603
    175 C58        -3.4470    5.5200   -5.0840 c3        1 MOL     -0.290006
    176 H77        -2.8010    5.5840   -5.9600 h1        1 MOL      0.105416
    177 H78        -4.3440    4.9540   -5.3350 h1        1 MOL      0.105416
    178 H79        -3.7270    6.5240   -4.7660 h1        1 MOL      0.105416
    179 H80        -3.3890    4.3690   -3.3970 hn        1 MOL      0.176444
    180 Ca1         3.8700    1.9420    1.0610 Ca        1 MOL      1.703866
    181 O27         4.1700    4.2970    3.2300 oh        1 MOL     -0.791314
    182 H81         4.8670    4.7030    2.7280 ho        1 MOL      0.376647
    183 H82         4.4910    4.3020    4.1340 ho        1 MOL      0.376647
    184 O28         5.5050    0.8780    2.9280 oh        1 MOL     -0.791314
    185 H83         6.2400    0.3940    2.5390 ho        1 MOL      0.376647
    186 H84         5.7120    0.9200    3.8650 ho        1 MOL      0.376647
    187 O29         2.7010    4.3330    0.4570 oh        1 MOL     -0.791314
    188 H85         1.8760    3.8780    0.2980 ho        1 MOL      0.376647
    189 H86         2.8670    4.8150   -0.3510 ho        1 MOL      0.376647
    190 O30         1.8760    1.7830    3.0110 oh        1 MOL     -0.791314
    191 H87         2.0660    1.1910    3.7330 ho        1 MOL      0.376647
    192 H88         0.9210    1.9150    3.0530 ho        1 MOL      0.376647
@<TRIPOS>BOND
     1    1    2 1   
     2    1    4 1   
     3    1    5 1   
     4    1    6 1   
     5    2    3 2   
     6    2    7 1   
     7    7    8 1   
     8    7   15 1   
     9    8    9 1   
    10    8   11 1   
    11    8   16 1   
    12    9   10 2   
    13    9   19 1   
    14   11   12 1   
    15   11   17 1   
    16   11   18 1   
    17   12   13 1   
    18   12   14 1   
    19   19   20 1   
    20   19   27 1   
    21   20   21 1   
    22   20   23 1   
    23   20   28 1   
    24   21   22 2   
    25   21   38 1   
    26   23   24 1   
    27   23   25 1   
    28   23   29 1   
    29   24   26 1   
    30   24   30 1   
    31   24   31 1   
    32   25   32 1   
    33   25   33 1   
    34   25   34 1   
    35   26   35 1   
    36   26   36 1   
    37   26   37 1   
    38   38   39 1   
    39   38   46 1   
    40   39   40 1   
    41   39   42 1   
    42   39   47 1   
    43   40   41 2   
    44   40   50 1   
    45   42   43 1   
    46   42   48 1   
    47   42   49 1   
    48   43   44 1   
    49   43   45 1   
    50   50   51 1   
    51   50   54 1   
    52   51   52 1   
    53   51   55 1   
    54   51   56 1   
    55   52   53 2   
    56   52   57 1   
    57   57   58 1   
    58   57   65 1   
    59   58   59 1   
    60   58   61 1   
    61   58   66 1   
    62   59   60 2   
    63   59   69 1   
    64   61   62 1   
    65   61   67 1   
    66   61   68 1   
    67   62   63 1   
    68   62   64 1   
    69   69   70 1   
    70   69   73 1   
    71   70   71 1   
    72   70   74 1   
    73   70   75 1   
    74   71   72 2   
    75   71   76 1   
    76   76   77 1   
    77   76   85 1   
    78   77   78 1   
    79   77   80 1   
    80   77   86 1   
    81   78   79 2   
    82   78   93 1   
    83   80   81 1   
    84   80   87 1   
    85   80   88 1   
    86   81   82 1   
    87   81   89 1   
    88   81   90 1   
    89   82   83 1   
    90   82   84 2   
    91   83   91 1   
    92   83   92 1   
    93   93   94 1   
    94   93  100 1   
    95   94   95 1   
    96   94   97 1   
    97   94  101 1   
    98   95   96 2   
    99   95  109 1   
   100   97   98 1   
   101   97   99 1   
   102   97  102 1   
   103   98  103 1   
   104   98  104 1   
   105   98  105 1   
   106   99  106 1   
   107   99  107 1   
   108   99  108 1   
   109  109  110 1   
   110  109  117 1   
   111  110  111 1   
   112  110  113 1   
   113  110  118 1   
   114  111  112 2   
   115  111  123 1   
   116  113  114 1   
   117  113  119 1   
   118  113  120 1   
   119  114  115 1   
   120  114  116 2   
   121  115  121 1   
   122  115  122 1   
   123  123  124 1   
   124  123  135 1   
   125  124  125 1   
   126  124  127 1   
   127  124  136 1   
   128  125  126 2   
   129  125  144 1   
   130  127  128 1   
   131  127  137 1   
   132  127  138 1   
   133  128  129 ar  
   134  128  130 ar  
   135  129  131 ar  
   136  129  139 1   
   137  130  132 ar  
   138  130  140 1   
   139  131  133 ar  
   140  131  141 1   
   141  132  133 ar  
   142  132  142 1   
   143  133  134 1   
   144  134  143 1   
   145  144  145 1   
   146  144  153 1   
   147  145  146 1   
   148  145  148 1   
   149  145  154 1   
   150  146  147 2   
   151  146  159 1   
   152  148  149 1   
   153  148  155 1   
   154  148  156 1   
   155  149  150 1   
   156  149  157 1   
   157  149  158 1   
   158  150  151 1   
   159  150  152 1   
   160  159  160 1   
   161  159  168 1   
   162  160  161 1   
   163  160  163 1   
   164  160  169 1   
   165  161  162 2   
   166  161  174 1   
   167  163  164 1   
   168  163  170 1   
   169  163  171 1   
   170  164  165 1   
   171  164  172 1   
   172  164  173 1   
   173  165  166 1   
   174  165  167 1   
   175  174  175 1   
   176  174  179 1   
   177  175  176 1   
   178  175  177 1   
   179  175  178 1   
   180  181  182 1   
   181  181  183 1   
   182  184  185 1   
   183  184  186 1   
   184  187  188 1   
   185  187  189 1   
   186  190  191 1   
   187  190  192 1   
@<TRIPOS>SUBSTRUCTURE
     1 MOL         1 TEMP              0 ****  ****    0 ROOT
