@<TRIPOS>MOLECULE
MOL
  189   185     1     0     0
SMALL
resp


@<TRIPOS>ATOM
      1 C1         -5.5290   -4.3130    2.8140 c3        1 MOL     -0.116296
      2 C2         -4.4340   -3.7020    1.9990 c         1 MOL      0.535094
      3 O1         -3.7890   -2.7290    2.3200 o         1 MOL     -0.461583
      4 H1         -5.4000   -4.0360    3.8600 hc        1 MOL      0.012474
      5 H2         -6.4930   -3.9490    2.4580 hc        1 MOL      0.012474
      6 H3         -5.4920   -5.3980    2.7190 hc        1 MOL      0.012474
      7 N1         -4.2570   -4.2730    0.8160 n         1 MOL     -0.555204
      8 C3         -3.2010   -3.9470   -0.1780 c3        1 MOL     -0.082862
      9 C4         -1.6740   -3.9040    0.2100 c         1 MOL      0.610415
     10 O2         -0.9440   -2.9900   -0.1030 o         1 MOL     -0.509928
     11 C5         -3.5980   -2.6110   -0.8090 c3        1 MOL     -0.215001
     12 C6         -5.0480   -2.5040   -1.1750 c         1 MOL      0.553118
     13 O3         -5.5310   -3.2260   -2.0840 o         1 MOL     -0.634510
     14 O4         -5.7290   -1.5510   -0.5650 o         1 MOL     -0.634510
     15 H4         -4.9130   -5.0110    0.5710 hn        1 MOL      0.269463
     16 H5         -3.2540   -4.6480   -1.0190 h1        1 MOL      0.094690
     17 H6         -3.0080   -2.4130   -1.7040 hc        1 MOL      0.140377
     18 H7         -3.3220   -1.8350   -0.0880 hc        1 MOL      0.140377
     19 N2         -1.3740   -4.8130    1.1950 n         1 MOL     -0.446090
     20 C7         -0.1140   -5.0640    1.8340 c3        1 MOL     -0.033708
     21 C8          0.6490   -6.1260    1.0640 c         1 MOL      0.508007
     22 O5          0.2870   -7.2420    1.1860 o         1 MOL     -0.591864
     23 C9         -0.3360   -5.4460    3.2990 c3        1 MOL      0.181229
     24 C10        -1.0670   -4.3800    4.0840 c3        1 MOL      0.288587
     25 C11         0.9610   -5.8070    4.0860 c3        1 MOL     -0.297906
     26 C12        -1.6060   -4.8610    5.4000 c3        1 MOL     -0.505956
     27 H8         -2.1610   -5.3730    1.4870 hn        1 MOL      0.279067
     28 H9          0.4690   -4.1540    1.7660 h1        1 MOL      0.097480
     29 H10        -0.9700   -6.3250    3.3920 hc        1 MOL     -0.034538
     30 H11        -1.9280   -3.9400    3.5720 hc        1 MOL     -0.006870
     31 H12        -0.4530   -3.4850    4.1220 hc        1 MOL     -0.006870
     32 H13         1.6750   -4.9920    4.0140 hc        1 MOL      0.059274
     33 H14         0.6750   -5.9640    5.1230 hc        1 MOL      0.059274
     34 H15         1.4570   -6.6830    3.6610 hc        1 MOL      0.059274
     35 H16        -0.7620   -4.8890    6.0980 hc        1 MOL      0.108437
     36 H17        -2.3990   -4.1840    5.7110 hc        1 MOL      0.108437
     37 H18        -2.0410   -5.8560    5.3000 hc        1 MOL      0.108437
     38 N3          1.6130   -5.9510    0.1710 n         1 MOL     -0.289810
     39 C13         2.2420   -4.7260   -0.3000 c3        1 MOL      0.037413
     40 C14         2.7780   -4.9270   -1.7180 c         1 MOL      0.574007
     41 O6          2.9820   -6.0770   -2.1860 o         1 MOL     -0.563203
     42 C15         3.3710   -4.2760    0.6140 c3        1 MOL     -0.315345
     43 C16         3.9510   -2.9330    0.2540 c         1 MOL      0.690312
     44 O7          5.2110   -2.8000    0.1760 o         1 MOL     -0.632420
     45 O8          3.2360   -1.9670   -0.0640 o         1 MOL     -0.632420
     46 H19         1.7260   -6.7520   -0.4310 hn        1 MOL      0.221574
     47 H20         1.4580   -3.9690   -0.3460 h1        1 MOL     -0.028888
     48 H21         4.1660   -5.0110    0.7200 hc        1 MOL      0.075468
     49 H22         2.9770   -4.2310    1.6330 hc        1 MOL      0.075468
     50 N4          3.1160   -3.8390   -2.4130 n         1 MOL     -0.312692
     51 C17         3.5430   -3.8360   -3.7740 c3        1 MOL     -0.239384
     52 C18         4.6060   -2.6730   -4.1410 c         1 MOL      0.688158
     53 O9          4.6880   -2.4700   -5.2940 o         1 MOL     -0.581972
     54 H23         3.0620   -2.9360   -1.9760 hn        1 MOL      0.286380
     55 H24         2.7370   -3.6520   -4.4910 h1        1 MOL      0.099917
     56 H25         4.1170   -4.7220   -4.0470 h1        1 MOL      0.099917
     57 N5          5.2780   -1.9670   -3.2210 n         1 MOL     -0.572825
     58 C19         6.4400   -1.0640   -3.5440 c3        1 MOL      0.156519
     59 C20         7.4820   -1.0330   -2.4070 c         1 MOL      0.271939
     60 O10         8.5700   -0.5850   -2.5990 o         1 MOL     -0.543649
     61 C21         5.9670    0.3190   -3.8200 c3        1 MOL     -0.186982
     62 C22         4.7780    0.7350   -2.9290 c         1 MOL      0.688573
     63 O11         4.9950    1.1930   -1.7590 o         1 MOL     -0.663099
     64 O12         3.6270    0.6650   -3.3830 o         1 MOL     -0.663099
     65 H26         5.0640   -2.1730   -2.2540 hn        1 MOL      0.362017
     66 H27         6.9730   -1.4910   -4.3970 h1        1 MOL      0.059811
     67 H28         5.7320    0.2480   -4.8780 hc        1 MOL      0.041802
     68 H29         6.7230    1.0860   -3.6240 hc        1 MOL      0.041802
     69 N6          7.1220   -1.4560   -1.2040 n         1 MOL     -0.007358
     70 C23         7.9300   -1.2070    0.0510 c3        1 MOL     -0.251572
     71 C24         8.1460    0.2430    0.3840 c         1 MOL      0.589885
     72 O13         8.8690    0.4750    1.2830 o         1 MOL     -0.618573
     73 H30         6.2600   -1.9570   -1.0690 hn        1 MOL      0.020904
     74 H31         8.9750   -1.5000   -0.0570 h1        1 MOL      0.107635
     75 H32         7.4500   -1.8170    0.8240 h1        1 MOL      0.107635
     76 N7          7.4820    1.2390   -0.2770 n         1 MOL     -0.005232
     77 C25         7.3350    2.6990    0.0130 c3        1 MOL      0.154470
     78 C26         7.0230    3.0380    1.4770 c         1 MOL      0.356942
     79 O14         7.4230    4.1100    2.0740 o         1 MOL     -0.519853
     80 C27         8.5680    3.4510   -0.5130 c3        1 MOL      0.155304
     81 C28         9.1170    2.9060   -1.8840 c3        1 MOL     -0.148786
     82 C29        10.1780    3.7870   -2.4610 c         1 MOL      0.668783
     83 N8         11.0250    3.3850   -3.3880 n         1 MOL     -0.800069
     84 O15        10.2450    4.9940   -2.2210 o         1 MOL     -0.582027
     85 H33         6.8130    0.9120   -0.9500 hn        1 MOL      0.015901
     86 H34         6.5220    3.0140   -0.6440 h1        1 MOL      0.049480
     87 H35         9.3080    3.3290    0.2760 hc        1 MOL     -0.049916
     88 H36         8.3190    4.5020   -0.6500 hc        1 MOL     -0.049916
     89 H37         8.2660    2.8750   -2.5570 hc        1 MOL      0.017597
     90 H38         9.5280    1.8930   -1.8750 hc        1 MOL      0.017597
     91 H39        10.8640    2.4850   -3.8230 hn        1 MOL      0.343403
     92 H40        11.8510    3.9090   -3.6490 hn        1 MOL      0.343403
     93 N9          6.1470    2.2060    2.1220 n         1 MOL     -0.272824
     94 C30         5.6520    2.3830    3.4660 c3        1 MOL     -0.085812
     95 C31         4.0930    2.1310    3.6350 c         1 MOL      0.365161
     96 O16         3.5900    2.1790    4.8040 o         1 MOL     -0.547270
     97 C32         6.5300    1.6210    4.5150 c3        1 MOL      0.300938
     98 C33         6.3890    0.1020    4.2370 c3        1 MOL     -0.370450
     99 C34         8.0060    1.9930    4.4550 c3        1 MOL     -0.370450
    100 H41         5.8640    1.3400    1.6770 hn        1 MOL      0.217694
    101 H42         5.8070    3.4520    3.5900 h1        1 MOL      0.109799
    102 H43         6.1070    1.8210    5.4980 hc        1 MOL     -0.033329
    103 H44         6.6510   -0.2530    3.2400 hc        1 MOL      0.087857
    104 H45         7.0160   -0.5020    4.8830 hc        1 MOL      0.087857
    105 H46         5.3350   -0.1430    4.3510 hc        1 MOL      0.087857
    106 H47         8.4500    1.7970    3.4790 hc        1 MOL      0.087857
    107 H48         8.1180    3.0500    4.7070 hc        1 MOL      0.087857
    108 H49         8.4970    1.3540    5.1910 hc        1 MOL      0.087857
    109 N10         3.2980    1.8390    2.5900 n         1 MOL     -0.226321
    110 C35         1.8360    1.4590    2.7310 c3        1 MOL      0.105689
    111 C36         1.0320    1.8810    1.4750 c         1 MOL      0.466676
    112 O17         1.6300    2.0110    0.4550 o         1 MOL     -0.489059
    113 C37         1.7390    0.0230    3.1710 c3        1 MOL      0.074086
    114 C38         0.7140   -0.8260    2.5900 c         1 MOL      0.308484
    115 N11         0.8660   -1.2000    1.3530 n         1 MOL     -0.502727
    116 O18        -0.3220   -1.1180    3.1860 o         1 MOL     -0.550167
    117 H50         3.7490    1.8850    1.6880 hn        1 MOL      0.167752
    118 H51         1.5510    2.0600    3.5920 h1        1 MOL      0.042898
    119 H52         1.5900    0.0100    4.2580 hc        1 MOL      0.017753
    120 H53         2.6730   -0.4940    2.9800 hc        1 MOL      0.017753
    121 H54         1.7350   -1.0910    0.8560 hn        1 MOL      0.330523
    122 H55         0.2110   -1.8690    0.9800 hn        1 MOL      0.330523
    123 N12        -0.2620    1.9310    1.4740 n         1 MOL     -0.571345
    124 C39        -1.1050    2.1560    0.2780 c3        1 MOL      0.276606
    125 C40        -2.3560    2.9310    0.7990 c         1 MOL      0.614091
    126 O19        -2.8200    2.6520    1.9390 o         1 MOL     -0.615420
    127 C41        -1.5260    0.7900   -0.3100 c3        1 MOL     -0.043853
    128 C42        -2.0790    0.9200   -1.6830 ca        1 MOL     -0.064486
    129 C43        -1.2110    1.1770   -2.7510 ca        1 MOL     -0.110574
    130 C44        -3.4660    0.9640   -1.8370 ca        1 MOL     -0.110574
    131 C45        -1.7370    1.3800   -4.0390 ca        1 MOL     -0.263803
    132 C46        -3.9720    1.3460   -3.0550 ca        1 MOL     -0.263803
    133 C47        -3.1630    1.6080   -4.1490 ca        1 MOL      0.325355
    134 O20        -3.5850    1.8720   -5.3770 oh        1 MOL     -0.528701
    135 H56        -0.7040    1.5290    2.2900 hn        1 MOL      0.315602
    136 H57        -0.6760    2.7800   -0.5100 h1        1 MOL      0.031027
    137 H58        -2.3570    0.4410    0.2990 hc        1 MOL      0.039798
    138 H59        -0.7050    0.0740   -0.2810 hc        1 MOL      0.039798
    139 H60        -0.1400    1.0640   -2.6590 ha        1 MOL      0.171438
    140 H61        -4.1480    0.8140   -1.0100 ha        1 MOL      0.171438
    141 H62        -1.0820    1.4180   -4.8880 ha        1 MOL      0.133672
    142 H63        -5.0480    1.3860   -3.1390 ha        1 MOL      0.133672
    143 H64        -2.8370    2.2330   -5.8620 ho        1 MOL      0.379828
    144 N13        -2.8510    3.8560    0.0040 n         1 MOL     -0.659954
    145 C48        -3.9150    4.8680    0.3200 c3        1 MOL      0.195810
    146 C49        -5.0900    4.7490   -0.6050 c         1 MOL      0.746902
    147 O21        -5.1760    5.5190   -1.4880 o         1 MOL     -0.571258
    148 C50        -3.2670    6.2970    0.3780 c3        1 MOL      0.175556
    149 C51        -3.9830    7.3550    1.1660 c3        1 MOL     -0.300753
    150 C52        -4.6750    8.3100    0.1920 c         1 MOL      0.708341
    151 O22        -3.8840    9.1680   -0.3110 o         1 MOL     -0.670973
    152 O23        -5.9460    8.3420    0.0690 o         1 MOL     -0.670973
    153 H65        -2.4580    3.8160   -0.9250 hn        1 MOL      0.296624
    154 H66        -4.2360    4.6530    1.3360 h1        1 MOL      0.006885
    155 H67        -3.0690    6.6830   -0.6200 hc        1 MOL     -0.020354
    156 H68        -2.2480    6.2270    0.7510 hc        1 MOL     -0.020354
    157 H69        -3.3060    7.9560    1.7620 hc        1 MOL      0.048026
    158 H70        -4.8100    6.9520    1.7440 hc        1 MOL      0.048026
    159 N14        -6.0260    3.8090   -0.5310 n         1 MOL     -0.867247
    160 C53        -6.1050    2.7010    0.4390 c3        1 MOL      0.562193
    161 C54        -6.5540    3.1290    1.8390 c         1 MOL      0.563066
    162 O24        -7.0870    4.1660    2.0240 o         1 MOL     -0.526481
    163 C55        -7.0790    1.5720   -0.1150 c3        1 MOL     -0.482600
    164 C56        -8.5360    1.9530   -0.2050 c3        1 MOL     -0.118193
    165 C57        -9.6020    0.8390   -0.4440 c         1 MOL      0.821935
    166 O25        -9.3860   -0.3630   -0.2430 o         1 MOL     -0.784817
    167 O26       -10.8160    1.1430   -0.6050 o         1 MOL     -0.784817
    168 H71        -6.7070    3.9380   -1.2680 hn        1 MOL      0.382224
    169 H72        -5.1730    2.1630    0.5790 h1        1 MOL     -0.074111
    170 H73        -6.9070    0.7700    0.5920 hc        1 MOL      0.064868
    171 H74        -6.8120    1.2600   -1.1290 hc        1 MOL      0.064868
    172 H75        -8.7460    2.5970   -1.0680 hc        1 MOL      0.071672
    173 H76        -8.7590    2.5400    0.6780 hc        1 MOL      0.071672
    174 N15        -6.2980    2.1590    2.7260 n         1 MOL     -0.291358
    175 C58        -6.4550    2.3180    4.1390 c3        1 MOL     -0.561053
    176 H77        -5.5320    2.0280    4.6410 h1        1 MOL      0.184380
    177 H78        -6.6800    3.3600    4.3640 h1        1 MOL      0.184380
    178 H79        -7.2720    1.6860    4.4880 h1        1 MOL      0.184380
    179 H80        -5.8790    1.3110    2.3650 hn        1 MOL      0.312034
    180 Ca1        -8.1790   -2.3060   -1.2060 Ca        1 MOL      1.580138
    181 O27        -9.8750   -2.2690   -3.4380 oh        1 MOL     -0.882204
    182 H81        -9.9090   -2.5990   -4.3360 ho        1 MOL      0.419669
    183 H82       -10.5990   -1.6410   -3.3820 ho        1 MOL      0.419669
    184 O28        -7.3100   -0.5700   -2.9040 oh        1 MOL     -0.882204
    185 H83        -7.0130   -1.0790   -3.6580 ho        1 MOL      0.419669
    186 H84        -7.3570    0.3280   -3.2260 ho        1 MOL      0.419669
    187 O29        -8.0300   -4.5370   -2.7590 oh        1 MOL     -0.882204
    188 H85        -8.5870   -5.2800   -2.9990 ho        1 MOL      0.419669
    189 H86        -7.1390   -4.8550   -2.8900 ho        1 MOL      0.419669
@<TRIPOS>BOND
     1    1    2 1   
     2    1    4 1   
     3    1    5 1   
     4    1    6 1   
     5    2    3 2   
     6    2    7 1   
     7    7    8 1   
     8    7   15 1   
     9    8    9 1   
    10    8   11 1   
    11    8   16 1   
    12    9   10 2   
    13    9   19 1   
    14   11   12 1   
    15   11   17 1   
    16   11   18 1   
    17   12   13 1   
    18   12   14 1   
    19   19   20 1   
    20   19   27 1   
    21   20   21 1   
    22   20   23 1   
    23   20   28 1   
    24   21   22 2   
    25   21   38 1   
    26   23   24 1   
    27   23   25 1   
    28   23   29 1   
    29   24   26 1   
    30   24   30 1   
    31   24   31 1   
    32   25   32 1   
    33   25   33 1   
    34   25   34 1   
    35   26   35 1   
    36   26   36 1   
    37   26   37 1   
    38   38   39 1   
    39   38   46 1   
    40   39   40 1   
    41   39   42 1   
    42   39   47 1   
    43   40   41 2   
    44   40   50 1   
    45   42   43 1   
    46   42   48 1   
    47   42   49 1   
    48   43   44 1   
    49   43   45 1   
    50   50   51 1   
    51   50   54 1   
    52   51   52 1   
    53   51   55 1   
    54   51   56 1   
    55   52   53 2   
    56   52   57 1   
    57   57   58 1   
    58   57   65 1   
    59   58   59 1   
    60   58   61 1   
    61   58   66 1   
    62   59   60 2   
    63   59   69 1   
    64   61   62 1   
    65   61   67 1   
    66   61   68 1   
    67   62   63 1   
    68   62   64 1   
    69   69   70 1   
    70   69   73 1   
    71   70   71 1   
    72   70   74 1   
    73   70   75 1   
    74   71   72 2   
    75   71   76 1   
    76   76   77 1   
    77   76   85 1   
    78   77   78 1   
    79   77   80 1   
    80   77   86 1   
    81   78   79 2   
    82   78   93 1   
    83   80   81 1   
    84   80   87 1   
    85   80   88 1   
    86   81   82 1   
    87   81   89 1   
    88   81   90 1   
    89   82   83 1   
    90   82   84 2   
    91   83   91 1   
    92   83   92 1   
    93   93   94 1   
    94   93  100 1   
    95   94   95 1   
    96   94   97 1   
    97   94  101 1   
    98   95   96 2   
    99   95  109 1   
   100   97   98 1   
   101   97   99 1   
   102   97  102 1   
   103   98  103 1   
   104   98  104 1   
   105   98  105 1   
   106   99  106 1   
   107   99  107 1   
   108   99  108 1   
   109  109  110 1   
   110  109  117 1   
   111  110  111 1   
   112  110  113 1   
   113  110  118 1   
   114  111  112 2   
   115  111  123 1   
   116  113  114 1   
   117  113  119 1   
   118  113  120 1   
   119  114  115 1   
   120  114  116 2   
   121  115  121 1   
   122  115  122 1   
   123  123  124 1   
   124  123  135 1   
   125  124  125 1   
   126  124  127 1   
   127  124  136 1   
   128  125  126 2   
   129  125  144 1   
   130  127  128 1   
   131  127  137 1   
   132  127  138 1   
   133  128  129 ar  
   134  128  130 ar  
   135  129  131 ar  
   136  129  139 1   
   137  130  132 ar  
   138  130  140 1   
   139  131  133 ar  
   140  131  141 1   
   141  132  133 ar  
   142  132  142 1   
   143  133  134 1   
   144  134  143 1   
   145  144  145 1   
   146  144  153 1   
   147  145  146 1   
   148  145  148 1   
   149  145  154 1   
   150  146  147 2   
   151  146  159 1   
   152  148  149 1   
   153  148  155 1   
   154  148  156 1   
   155  149  150 1   
   156  149  157 1   
   157  149  158 1   
   158  150  151 1   
   159  150  152 1   
   160  159  160 1   
   161  159  168 1   
   162  160  161 1   
   163  160  163 1   
   164  160  169 1   
   165  161  162 2   
   166  161  174 1   
   167  163  164 1   
   168  163  170 1   
   169  163  171 1   
   170  164  165 1   
   171  164  172 1   
   172  164  173 1   
   173  165  166 1   
   174  165  167 1   
   175  174  175 1   
   176  174  179 1   
   177  175  176 1   
   178  175  177 1   
   179  175  178 1   
   180  181  182 1   
   181  181  183 1   
   182  184  185 1   
   183  184  186 1   
   184  187  188 1   
   185  187  189 1   
@<TRIPOS>SUBSTRUCTURE
     1 MOL         1 TEMP              0 ****  ****    0 ROOT
