@<TRIPOS>MOLECULE
MOL
  181   177     1     0     0
SMALL
resp


@<TRIPOS>ATOM
      1 C1         -7.4750   -5.6660   -4.6230 c3        1 MOL     -0.449004
      2 C2         -6.6080   -4.5560   -3.9910 c         1 MOL      0.745146
      3 O1         -5.5880   -4.2220   -4.4870 o         1 MOL     -0.582459
      4 H1         -6.9260   -6.1340   -5.4410 hc        1 MOL      0.100035
      5 H2         -7.7110   -6.4170   -3.8690 hc        1 MOL      0.100035
      6 H3         -8.3990   -5.2320   -5.0070 hc        1 MOL      0.100035
      7 N1         -7.0320   -4.0310   -2.8470 n         1 MOL     -0.450670
      8 C3         -8.1820   -4.3560   -2.0300 c3        1 MOL     -0.098107
      9 C4         -7.7700   -4.6700   -0.6090 c         1 MOL      0.543469
     10 O2         -6.7310   -5.2260   -0.2740 o         1 MOL     -0.484280
     11 C5         -9.0340   -3.0890   -2.0380 c3        1 MOL     -0.069063
     12 C6         -8.3350   -1.7700   -1.6920 c         1 MOL      0.694119
     13 O3         -7.8840   -0.9850   -2.5200 o         1 MOL     -0.726818
     14 O4         -8.2530   -1.5060   -0.4850 o         1 MOL     -0.726818
     15 H4         -6.3670   -3.3680   -2.4650 hn        1 MOL      0.346411
     16 H5         -8.6790   -5.2580   -2.3670 h1        1 MOL      0.100901
     17 H6         -9.9200   -3.1700   -1.4000 hc        1 MOL     -0.010876
     18 H7         -9.3980   -2.9730   -3.0520 hc        1 MOL     -0.010876
     19 N2         -8.5660   -4.2150    0.3750 n         1 MOL     -0.515121
     20 C7         -8.4010   -4.3640    1.8650 c3        1 MOL      0.251918
     21 C8         -7.0780   -3.7520    2.3710 c         1 MOL      0.399845
     22 O5         -6.4460   -4.1720    3.3460 o         1 MOL     -0.542117
     23 C9         -8.6050   -5.8130    2.3010 c3        1 MOL     -0.335841
     24 H8         -9.4320   -3.7670    0.1020 hn        1 MOL      0.292879
     25 H9         -9.1770   -3.7310    2.2950 h1        1 MOL      0.034171
     26 H10        -9.4360   -6.3020    1.8040 hc        1 MOL      0.086785
     27 H11        -7.7540   -6.4520    2.1010 hc        1 MOL      0.086785
     28 H12        -8.8380   -5.7340    3.3650 hc        1 MOL      0.086785
     29 N3         -6.6780   -2.6660    1.7160 n         1 MOL     -0.158196
     30 C10        -5.5660   -1.7840    1.9890 c3        1 MOL      0.196223
     31 C11        -6.0210   -0.3440    2.0160 c         1 MOL      0.245999
     32 O6         -7.1560    0.0710    1.6500 o         1 MOL     -0.504556
     33 C12        -4.4660   -1.8750    0.8580 c3        1 MOL     -0.246658
     34 C13        -5.0260   -1.4770   -0.5170 c         1 MOL      0.787357
     35 O7         -5.1140   -2.3800   -1.3890 o         1 MOL     -0.681314
     36 O8         -5.3970   -0.2930   -0.6750 o         1 MOL     -0.681314
     37 H13        -7.2470   -2.4360    0.9130 hn        1 MOL      0.089451
     38 H14        -5.1610   -1.9080    2.9940 h1        1 MOL      0.034020
     39 H15        -4.0520   -2.8850    0.8680 hc        1 MOL      0.067282
     40 H16        -3.6820   -1.1240    1.0410 hc        1 MOL      0.067282
     41 N4         -5.2300    0.5630    2.5450 n         1 MOL     -0.252207
     42 C14        -5.4090    1.9830    2.7660 c3        1 MOL     -0.232248
     43 C15        -5.0890    2.8550    1.5640 c         1 MOL      0.630164
     44 O9         -5.6750    2.5990    0.4980 o         1 MOL     -0.659734
     45 H17        -4.3270    0.1980    2.7900 hn        1 MOL      0.277327
     46 H18        -4.6170    2.1680    3.4920 h1        1 MOL      0.132929
     47 H19        -6.3030    2.3960    3.2470 h1        1 MOL      0.132929
     48 N5         -4.3900    3.9520    1.7360 n         1 MOL     -0.552004
     49 C16        -3.9770    4.8560    0.5920 c3        1 MOL      0.163930
     50 C17        -2.4940    5.2830    0.5710 c         1 MOL      0.553927
     51 O10        -2.1480    6.3010   -0.0180 o         1 MOL     -0.530358
     52 C18        -4.9330    6.0640    0.5930 c3        1 MOL     -0.276662
     53 C19        -6.4050    5.6640    0.4700 c         1 MOL      0.763120
     54 N6         -6.8950    5.5410   -0.7810 n         1 MOL     -0.780578
     55 O11        -7.1390    5.6050    1.4220 o         1 MOL     -0.574532
     56 H20        -4.0710    4.2600    2.6480 hn        1 MOL      0.321442
     57 H21        -4.1270    4.3640   -0.3760 h1        1 MOL      0.087185
     58 H22        -4.6160    6.7880   -0.1460 hc        1 MOL      0.081211
     59 H23        -4.8260    6.5130    1.5830 hc        1 MOL      0.081211
     60 H24        -6.2510    5.4950   -1.5600 hn        1 MOL      0.328422
     61 H25        -7.8830    5.5560   -1.0060 hn        1 MOL      0.328422
     62 N7         -1.6500    4.4880    1.2660 n         1 MOL     -0.444112
     63 C20        -0.2210    4.6540    1.1790 c3        1 MOL     -0.115268
     64 C21         0.5840    3.6790    2.0570 c         1 MOL      0.574014
     65 O12         0.0250    2.6960    2.5840 o         1 MOL     -0.516809
     66 H26        -2.0660    3.7440    1.7990 hn        1 MOL      0.255802
     67 H27         0.0750    5.6390    1.5310 h1        1 MOL      0.138899
     68 H28         0.0600    4.4630    0.1420 h1        1 MOL      0.138899
     69 N8          1.8840    3.9140    2.1750 n         1 MOL     -0.538124
     70 C22         2.7490    4.8200    1.3820 c3        1 MOL     -0.094028
     71 C23         2.8240    4.3800   -0.0810 c         1 MOL      0.075659
     72 O13         2.6630    5.1640   -1.0450 o         1 MOL     -0.393679
     73 C24         4.1850    5.0180    1.8850 c3        1 MOL      0.443296
     74 C25         4.9510    6.1260    1.1590 c3        1 MOL     -0.449896
     75 O14         4.1990    5.3460    3.2850 oh        1 MOL     -0.650587
     76 H29         2.4270    3.3680    2.8260 hn        1 MOL      0.337592
     77 H30         2.3400    5.8330    1.3260 h1        1 MOL      0.091601
     78 H31         4.7330    4.0790    1.8020 h1        1 MOL      0.077987
     79 H32         3.6450    6.1210    3.3990 ho        1 MOL      0.395327
     80 H33         4.2920    6.9960    1.2560 hc        1 MOL      0.126204
     81 H34         5.8890    6.3430    1.6760 hc        1 MOL      0.126204
     82 H35         5.0980    5.8640    0.1170 hc        1 MOL      0.126204
     83 N9          3.0940    3.0430   -0.2010 n         1 MOL     -0.023761
     84 C26         3.1980    2.3170   -1.4480 c3        1 MOL      0.021600
     85 C27         4.0100    3.0820   -2.5370 c         1 MOL      0.495411
     86 O15         3.3810    3.6110   -3.5400 o         1 MOL     -0.521988
     87 C28         1.7420    1.9330   -1.7880 c3        1 MOL      0.023293
     88 C29         1.0480    1.1450   -0.6720 c3        1 MOL     -0.144007
     89 C30         1.6080    1.1340   -3.0790 c3        1 MOL     -0.294664
     90 C31         1.4970   -0.2640   -0.5260 c3        1 MOL     -0.110043
     91 H36         3.1390    2.5260    0.6590 hn        1 MOL      0.205633
     92 H37         3.7070    1.3720   -1.2300 h1        1 MOL      0.103810
     93 H38         1.2600    2.8740   -2.0500 hc        1 MOL      0.076516
     94 H39        -0.0270    1.0670   -0.8730 hc        1 MOL      0.044152
     95 H40         1.1240    1.5990    0.3160 hc        1 MOL      0.044152
     96 H41         0.6470    0.6160   -3.0190 hc        1 MOL      0.079229
     97 H42         1.6040    1.8010   -3.9430 hc        1 MOL      0.079229
     98 H43         2.3470    0.3370   -3.0920 hc        1 MOL      0.079229
     99 H44         2.5790   -0.2350   -0.4140 hc        1 MOL      0.037427
    100 H45         1.1240   -0.8680    0.3040 hc        1 MOL      0.037427
    101 H46         1.2310   -0.8730   -1.3910 hc        1 MOL      0.037427
    102 N10         5.3610    3.2630   -2.3860 n         1 MOL     -0.715818
    103 C32         6.2310    2.8310   -1.2850 c3        1 MOL      0.959760
    104 C33         6.7100    1.3370   -1.5410 c         1 MOL      0.342968
    105 O16         6.2890    0.6210   -2.4600 o         1 MOL     -0.530723
    106 C34         7.4310    3.8140   -1.0180 c3        1 MOL     -0.618413
    107 C35         8.4040    4.0350   -2.1970 c         1 MOL      0.758768
    108 O17         9.4710    4.7600   -2.0590 o         1 MOL     -0.719627
    109 O18         8.1710    3.5950   -3.3160 o         1 MOL     -0.719627
    110 H47         5.7920    3.8150   -3.1070 hn        1 MOL      0.370139
    111 H48         5.7150    2.7360   -0.3270 h1        1 MOL     -0.295875
    112 H49         8.0260    3.5170   -0.1520 hc        1 MOL      0.104973
    113 H50         7.1050    4.8220   -0.7680 hc        1 MOL      0.104973
    114 N11         7.6660    0.8910   -0.7010 n         1 MOL     -0.424953
    115 C36         8.1390   -0.5120   -0.7020 c3        1 MOL      0.073274
    116 C37         9.0320   -0.8620    0.5260 c         1 MOL      0.278116
    117 O19        10.0350   -0.1510    0.7060 o         1 MOL     -0.469831
    118 C38         8.9590   -0.7690   -1.9970 c3        1 MOL     -0.269249
    119 C39         9.2290   -2.2770   -2.2270 ca        1 MOL      0.036213
    120 C40        10.4590   -2.8440   -1.8180 ca        1 MOL     -0.111098
    121 C41         8.2820   -3.1570   -2.7610 ca        1 MOL     -0.111098
    122 C42        10.7650   -4.1870   -1.9910 ca        1 MOL     -0.142871
    123 C43         8.5790   -4.5620   -2.9940 ca        1 MOL     -0.142871
    124 C44         9.8640   -5.0690   -2.6700 ca        1 MOL     -0.107501
    125 H51         7.9570    1.5150    0.0350 hn        1 MOL      0.303774
    126 H52         7.3320   -1.2430   -0.7830 h1        1 MOL      0.141617
    127 H53         9.9310   -0.2930   -1.9070 hc        1 MOL      0.146673
    128 H54         8.3560   -0.3720   -2.8090 hc        1 MOL      0.146673
    129 H55        11.1300   -2.1480   -1.3400 ha        1 MOL      0.119072
    130 H56         7.3500   -2.7790   -3.1640 ha        1 MOL      0.119072
    131 H57        11.7770   -4.4190   -1.7130 ha        1 MOL      0.101192
    132 H58         7.9240   -5.1730   -3.6090 ha        1 MOL      0.101192
    133 H59        10.1420   -6.0670   -2.9770 ha        1 MOL      0.098876
    134 N12         8.7790   -1.9930    1.2710 n         1 MOL      0.003037
    135 C45         7.8170   -3.0650    1.0340 c3        1 MOL      0.262571
    136 C46         6.3100   -2.6530    1.1810 c         1 MOL      0.262717
    137 O20         6.0000   -1.4450    1.1520 o         1 MOL     -0.545474
    138 C47         8.1470   -4.2120    2.0120 c3        1 MOL     -0.114299
    139 C48         9.6300   -3.9810    2.3220 c3        1 MOL      0.119374
    140 C49         9.6840   -2.4360    2.3100 c3        1 MOL     -0.130210
    141 H60         7.9420   -3.3800    0.0060 h1        1 MOL     -0.078641
    142 H61         7.5910   -4.0940    2.9410 hc        1 MOL      0.023907
    143 H62         8.0280   -5.1530    1.4660 hc        1 MOL      0.023907
    144 H63         9.9970   -4.5710    3.1660 hc        1 MOL     -0.016423
    145 H64        10.2180   -4.2280    1.4390 hc        1 MOL     -0.016423
    146 H65         9.2660   -2.0490    3.2420 h1        1 MOL      0.058451
    147 H66        10.6830   -2.0100    2.2020 h1        1 MOL      0.058451
    148 N13         5.3810   -3.5910    1.2320 n         1 MOL     -0.109841
    149 C50         3.9200   -3.2820    1.2040 c3        1 MOL     -0.041081
    150 C51         3.0430   -4.3970    0.7620 c         1 MOL      0.470338
    151 O21         2.0130   -4.8270    1.2470 o         1 MOL     -0.508111
    152 C52         3.5090   -2.7060    2.6330 c3        1 MOL      0.173170
    153 C53         4.0530   -3.3930    3.8870 c3        1 MOL     -0.379717
    154 C54         3.2400   -3.1380    5.1500 c         1 MOL      0.801550
    155 O22         2.0160   -2.9400    5.0290 o         1 MOL     -0.718497
    156 O23         3.7580   -3.0270    6.2630 o         1 MOL     -0.718497
    157 H67         5.6260   -4.5400    1.4430 hn        1 MOL      0.154533
    158 H68         3.8420   -2.4770    0.4790 h1        1 MOL      0.089553
    159 H69         2.4190   -2.7400    2.6330 hc        1 MOL      0.002905
    160 H70         3.6630   -1.6430    2.7910 hc        1 MOL      0.002905
    161 H71         5.0770   -3.0560    4.0160 hc        1 MOL      0.054641
    162 H72         3.9730   -4.4690    3.7420 hc        1 MOL      0.054641
    163 N14         3.3480   -5.0360   -0.3910 n         1 MOL     -0.402581
    164 C55         4.4430   -4.7500   -1.3960 c3        1 MOL      0.016095
    165 H73         4.0220   -4.7540   -2.4020 h1        1 MOL      0.031359
    166 H74         4.8800   -3.7730   -1.1900 h1        1 MOL      0.031359
    167 H75         5.2150   -5.5170   -1.3230 h1        1 MOL      0.031359
    168 H76         2.7160   -5.8030   -0.5950 hn        1 MOL      0.277054
    169 Ca1        -7.4320    1.0740   -0.8160 Ca        1 MOL      1.832465
    170 O24        -5.7610    1.8550   -2.8760 oh        1 MOL     -0.863158
    171 H77        -5.8200    2.3770   -3.6710 ho        1 MOL      0.410790
    172 H78        -4.8220    1.8040   -2.6870 ho        1 MOL      0.410790
    173 O25       -10.2140    0.7480   -0.8790 oh        1 MOL     -0.863158
    174 H79       -10.8940    1.4070   -0.7510 ho        1 MOL      0.410790
    175 H80       -10.6500    0.0360   -1.3590 ho        1 MOL      0.410790
    176 O26        -8.4420    2.9710   -2.5320 oh        1 MOL     -0.863158
    177 H81        -8.2130    2.9480   -3.4670 ho        1 MOL      0.410790
    178 H82        -9.0560    3.7040   -2.4620 ho        1 MOL      0.410790
    179 O27        -8.4380    2.9330    1.0360 oh        1 MOL     -0.863158
    180 H83        -8.0950    3.8140    1.1370 ho        1 MOL      0.410790
    181 H84        -9.2200    2.9190    1.5850 ho        1 MOL      0.410790
@<TRIPOS>BOND
     1    1    2 1   
     2    1    4 1   
     3    1    5 1   
     4    1    6 1   
     5    2    3 2   
     6    2    7 1   
     7    7    8 1   
     8    7   15 1   
     9    8    9 1   
    10    8   11 1   
    11    8   16 1   
    12    9   10 2   
    13    9   19 1   
    14   11   12 1   
    15   11   17 1   
    16   11   18 1   
    17   12   13 1   
    18   12   14 1   
    19   19   20 1   
    20   19   24 1   
    21   20   21 1   
    22   20   23 1   
    23   20   25 1   
    24   21   22 2   
    25   21   29 1   
    26   23   26 1   
    27   23   27 1   
    28   23   28 1   
    29   29   30 1   
    30   29   37 1   
    31   30   31 1   
    32   30   33 1   
    33   30   38 1   
    34   31   32 2   
    35   31   41 1   
    36   33   34 1   
    37   33   39 1   
    38   33   40 1   
    39   34   35 1   
    40   34   36 1   
    41   41   42 1   
    42   41   45 1   
    43   42   43 1   
    44   42   46 1   
    45   42   47 1   
    46   43   44 2   
    47   43   48 1   
    48   48   49 1   
    49   48   56 1   
    50   49   50 1   
    51   49   52 1   
    52   49   57 1   
    53   50   51 2   
    54   50   62 1   
    55   52   53 1   
    56   52   58 1   
    57   52   59 1   
    58   53   54 1   
    59   53   55 2   
    60   54   60 1   
    61   54   61 1   
    62   62   63 1   
    63   62   66 1   
    64   63   64 1   
    65   63   67 1   
    66   63   68 1   
    67   64   65 2   
    68   64   69 1   
    69   69   70 1   
    70   69   76 1   
    71   70   71 1   
    72   70   73 1   
    73   70   77 1   
    74   71   72 2   
    75   71   83 1   
    76   73   74 1   
    77   73   75 1   
    78   73   78 1   
    79   74   80 1   
    80   74   81 1   
    81   74   82 1   
    82   75   79 1   
    83   83   84 1   
    84   83   91 1   
    85   84   85 1   
    86   84   87 1   
    87   84   92 1   
    88   85   86 2   
    89   85  102 1   
    90   87   88 1   
    91   87   89 1   
    92   87   93 1   
    93   88   90 1   
    94   88   94 1   
    95   88   95 1   
    96   89   96 1   
    97   89   97 1   
    98   89   98 1   
    99   90   99 1   
   100   90  100 1   
   101   90  101 1   
   102  102  103 1   
   103  102  110 1   
   104  103  104 1   
   105  103  106 1   
   106  103  111 1   
   107  104  105 2   
   108  104  114 1   
   109  106  107 1   
   110  106  112 1   
   111  106  113 1   
   112  107  108 1   
   113  107  109 1   
   114  114  115 1   
   115  114  125 1   
   116  115  116 1   
   117  115  118 1   
   118  115  126 1   
   119  116  117 2   
   120  116  134 1   
   121  118  119 1   
   122  118  127 1   
   123  118  128 1   
   124  119  120 ar  
   125  119  121 ar  
   126  120  122 ar  
   127  120  129 1   
   128  121  123 ar  
   129  121  130 1   
   130  122  124 ar  
   131  122  131 1   
   132  123  124 ar  
   133  123  132 1   
   134  124  133 1   
   135  134  135 1   
   136  134  140 1   
   137  135  136 1   
   138  135  138 1   
   139  135  141 1   
   140  136  137 2   
   141  136  148 1   
   142  138  139 1   
   143  138  142 1   
   144  138  143 1   
   145  139  140 1   
   146  139  144 1   
   147  139  145 1   
   148  140  146 1   
   149  140  147 1   
   150  148  149 1   
   151  148  157 1   
   152  149  150 1   
   153  149  152 1   
   154  149  158 1   
   155  150  151 2   
   156  150  163 1   
   157  152  153 1   
   158  152  159 1   
   159  152  160 1   
   160  153  154 1   
   161  153  161 1   
   162  153  162 1   
   163  154  155 1   
   164  154  156 1   
   165  163  164 1   
   166  163  168 1   
   167  164  165 1   
   168  164  166 1   
   169  164  167 1   
   170  170  171 1   
   171  170  172 1   
   172  173  174 1   
   173  173  175 1   
   174  176  177 1   
   175  176  178 1   
   176  179  180 1   
   177  179  181 1   
@<TRIPOS>SUBSTRUCTURE
     1 MOL         1 TEMP              0 ****  ****    0 ROOT
