@<TRIPOS>MOLECULE
MOL
  198   191     1     0     0
SMALL
resp


@<TRIPOS>ATOM
      1 C1        -10.5540   -5.1510   -4.9410 c3        1 MOL     -0.390812
      2 C2        -10.1820   -4.5710   -3.5670 c         1 MOL      0.684650
      3 O1        -10.6300   -3.4870   -3.1660 o         1 MOL     -0.582760
      4 H1        -11.3670   -4.5680   -5.3730 hc        1 MOL      0.094529
      5 H2         -9.6870   -5.1100   -5.6000 hc        1 MOL      0.094529
      6 H3        -10.8720   -6.1880   -4.8230 hc        1 MOL      0.094529
      7 N1         -9.3710   -5.3230   -2.8670 n         1 MOL     -0.498127
      8 C3         -8.7490   -4.9110   -1.6800 c3        1 MOL      0.089545
      9 C4         -7.6010   -3.8500   -1.9040 c         1 MOL      0.593407
     10 O2         -7.1690   -3.5920   -3.0080 o         1 MOL     -0.552131
     11 C5         -8.1360   -6.1360   -1.0270 c3        1 MOL     -0.221603
     12 C6         -7.2540   -5.9450    0.1350 c         1 MOL      0.669533
     13 O3         -7.8500   -5.5420    1.1630 o         1 MOL     -0.594313
     14 O4         -6.0060   -6.1770    0.1880 o         1 MOL     -0.594313
     15 H4         -9.2830   -6.2780   -3.1660 hn        1 MOL      0.292082
     16 H5         -9.5170   -4.5520   -0.9950 h1        1 MOL      0.063427
     17 H6         -7.4920   -6.6920   -1.7090 hc        1 MOL      0.048902
     18 H7         -8.9430   -6.8380   -0.8310 hc        1 MOL      0.048902
     19 N2         -7.2490   -3.1500   -0.8270 n         1 MOL     -0.572032
     20 C7         -6.3080   -1.9730   -0.9030 c3        1 MOL      0.278375
     21 C8         -5.0790   -2.0790   -0.0300 c         1 MOL      0.719162
     22 O5         -5.1550   -2.2270    1.1690 o         1 MOL     -0.583719
     23 C9         -7.0360   -0.6100   -0.5390 c3        1 MOL     -0.205435
     24 C10        -6.2420    0.6310   -0.8620 c3        1 MOL      0.030188
     25 C11        -6.9100    1.9750   -0.4640 c3        1 MOL     -0.129485
     26 C12        -5.7350    2.9940   -0.4140 c3        1 MOL      0.186937
     27 N3         -6.1820    4.1990    0.3150 n4        1 MOL     -0.431850
     28 H8         -7.7020   -3.3570    0.0410 hn        1 MOL      0.283440
     29 H9         -5.9260   -1.8300   -1.9240 h1        1 MOL      0.013062
     30 H10        -7.3540   -0.7160    0.4980 hc        1 MOL      0.069649
     31 H11        -7.9850   -0.5300   -1.0820 hc        1 MOL      0.069649
     32 H12        -5.9220    0.6540   -1.8980 hc        1 MOL      0.022623
     33 H13        -5.2920    0.5120   -0.3300 hc        1 MOL      0.022623
     34 H14        -7.3060    1.8070    0.5330 hc        1 MOL      0.047497
     35 H15        -7.7090    2.3240   -1.1260 hc        1 MOL      0.047497
     36 H16        -5.4300    3.2500   -1.4300 hx        1 MOL      0.026016
     37 H17        -4.9510    2.5090    0.1720 hx        1 MOL      0.026016
     38 H18        -5.3870    4.7820    0.5370 hn        1 MOL      0.322163
     39 H19        -6.9380    4.7120   -0.1020 hn        1 MOL      0.322163
     40 H20        -6.5570    3.9040    1.2080 hn        1 MOL      0.322163
     41 N4         -3.9010   -1.8050   -0.6050 n         1 MOL     -0.773881
     42 C13        -2.6070   -1.5370    0.1460 c3        1 MOL      0.368920
     43 C14        -1.8880   -0.3780   -0.5740 c         1 MOL      0.401759
     44 O6         -2.0940   -0.1500   -1.7610 o         1 MOL     -0.543045
     45 C15        -1.6550   -2.7100    0.1210 c3        1 MOL     -0.127605
     46 C16        -0.5280   -2.8690    1.1590 c         1 MOL      0.544744
     47 O7          0.5300   -2.1220    1.1050 o         1 MOL     -0.667287
     48 O8         -0.6140   -3.8020    2.0000 o         1 MOL     -0.667287
     49 H21        -3.8360   -1.6860   -1.6120 hn        1 MOL      0.330515
     50 H22        -2.8020   -1.3400    1.2080 h1        1 MOL      0.070104
     51 H23        -1.1630   -2.7460   -0.8500 hc        1 MOL      0.077342
     52 H24        -2.1990   -3.6600    0.0800 hc        1 MOL      0.077342
     53 N5         -1.1680    0.4730    0.1600 n         1 MOL     -0.457847
     54 C17        -1.1600    0.7730    1.5840 c3        1 MOL     -0.102332
     55 C18        -2.5080    1.4760    1.9810 c         1 MOL      0.497268
     56 O9         -3.5180    1.2220    1.4140 o         1 MOL     -0.425011
     57 H25        -0.8780    1.2900   -0.3530 hn        1 MOL      0.394186
     58 H26        -0.2840    1.3800    1.8280 h1        1 MOL      0.092552
     59 H27        -0.9820   -0.1330    2.1590 h1        1 MOL      0.092552
     60 N6         -2.4730    2.4200    2.9950 n         1 MOL     -0.449628
     61 C19        -3.5600    3.3500    3.2350 c3        1 MOL      0.027116
     62 C20        -3.2620    4.7260    2.6780 c         1 MOL      0.712728
     63 O10        -3.9820    5.2510    1.8600 o         1 MOL     -0.583315
     64 C21        -3.7590    3.3730    4.8070 c3        1 MOL     -0.221681
     65 C22        -4.8600    4.3880    5.1980 c         1 MOL      0.738821
     66 O11        -6.0400    4.1000    5.1550 o         1 MOL     -0.710776
     67 O12        -4.4810    5.5490    5.4200 o         1 MOL     -0.710776
     68 H28        -1.5530    2.5640    3.3890 hn        1 MOL      0.227081
     69 H29        -4.5420    3.0860    2.8250 h1        1 MOL      0.101017
     70 H30        -2.8220    3.8380    5.1220 hc        1 MOL      0.015938
     71 H31        -3.8480    2.4080    5.2970 hc        1 MOL      0.015938
     72 N7         -2.0540    5.2090    3.0820 n         1 MOL     -0.516923
     73 C23        -1.4200    6.5160    2.6660 c3        1 MOL     -0.211954
     74 C24        -1.2380    6.7410    1.1740 c         1 MOL      0.562607
     75 O13        -0.8600    7.7710    0.7920 o         1 MOL     -0.562083
     76 H32        -1.5650    4.7180    3.8100 hn        1 MOL      0.343950
     77 H33        -0.4000    6.4940    3.0640 h1        1 MOL      0.140529
     78 H34        -1.8630    7.3980    3.1300 h1        1 MOL      0.140529
     79 N8         -1.5300    5.7560    0.3570 n         1 MOL     -0.191589
     80 C25        -1.3990    5.8720   -1.0740 c3        1 MOL     -0.095704
     81 C26        -1.1030    4.4350   -1.5480 c         1 MOL      0.411115
     82 O14        -1.4520    3.4370   -0.9740 o         1 MOL     -0.439555
     83 C27        -2.6900    6.4130   -1.7150 c3        1 MOL      0.301988
     84 C28        -2.5000    6.7780   -3.1900 c3        1 MOL     -0.170337
     85 O15        -3.7190    5.5160   -1.6410 oh        1 MOL     -0.585046
     86 H35        -1.8100    4.8530    0.7270 hn        1 MOL      0.161535
     87 H36        -0.6210    6.5840   -1.3490 h1        1 MOL      0.097097
     88 H37        -3.0110    7.3160   -1.1760 h1        1 MOL      0.030077
     89 H38        -4.3890    5.8740   -2.2180 ho        1 MOL      0.396165
     90 H39        -1.9190    7.6650   -3.4220 hc        1 MOL      0.033966
     91 H40        -2.0530    5.9200   -3.7030 hc        1 MOL      0.033966
     92 H41        -3.4950    6.8630   -3.6280 hc        1 MOL      0.033966
     93 N9         -0.3100    4.1540   -2.6900 n         1 MOL     -0.406075
     94 C29         0.1540    2.7760   -3.0340 c3        1 MOL      0.527463
     95 C30         1.1980    2.3410   -2.0050 c         1 MOL      0.464101
     96 O16         1.1240    1.2730   -1.3990 o         1 MOL     -0.565756
     97 C31         0.6720    2.5370   -4.4890 c3        1 MOL     -0.054629
     98 C32        -0.3260    2.9760   -5.4950 c3        1 MOL      0.071696
     99 C33         1.0640    1.0520   -4.6230 c3        1 MOL     -0.421080
    100 C34        -1.8170    2.8520   -5.2910 c3        1 MOL     -0.539270
    101 H42         0.1320    4.8920   -3.2200 hn        1 MOL      0.226845
    102 H43        -0.7060    2.0960   -2.9610 h1        1 MOL     -0.038244
    103 H44         1.5710    3.1250   -4.6480 hc        1 MOL      0.007909
    104 H45        -0.1850    2.5560   -6.4940 hc        1 MOL      0.011077
    105 H46        -0.0830    4.0310   -5.6160 hc        1 MOL      0.011077
    106 H47         0.3460    0.3570   -4.1790 hc        1 MOL      0.129489
    107 H48         1.1410    0.7210   -5.6510 hc        1 MOL      0.129489
    108 H49         2.0340    0.8760   -4.1520 hc        1 MOL      0.129489
    109 H50        -2.0270    1.7980   -5.0970 hc        1 MOL      0.151869
    110 H51        -2.2200    3.4290   -4.4550 hc        1 MOL      0.151869
    111 H52        -2.2760    3.0840   -6.2550 hc        1 MOL      0.151869
    112 N10         2.1370    3.2270   -1.6810 n         1 MOL     -0.469796
    113 C35         3.1130    3.0090   -0.6160 c3        1 MOL      0.037980
    114 C36         4.5080    3.4330   -1.0940 c         1 MOL      0.664376
    115 O17         4.6730    4.4170   -1.8510 o         1 MOL     -0.543607
    116 C37         2.7610    3.9330    0.5960 c3        1 MOL      0.402202
    117 C38         1.5220    3.6130    1.3460 c3        1 MOL     -0.187755
    118 O18         3.7280    3.9270    1.5640 oh        1 MOL     -0.720568
    119 H53         2.1750    4.0750   -2.2370 hn        1 MOL      0.195983
    120 H54         3.2080    1.9720   -0.2850 h1        1 MOL      0.094861
    121 H55         2.6920    4.9590    0.2290 h1        1 MOL     -0.010003
    122 H56         3.3580    4.2950    2.3720 ho        1 MOL      0.431895
    123 H57         1.3170    2.5620    1.5320 hc        1 MOL      0.011877
    124 H58         1.4150    4.1400    2.2970 hc        1 MOL      0.011877
    125 H59         0.6420    3.9270    0.7840 hc        1 MOL      0.011877
    126 N11         5.5130    2.6070   -0.8230 n         1 MOL     -0.607706
    127 C39         6.8500    2.7290   -1.3740 c3        1 MOL      0.148508
    128 C40         7.3680    1.4560   -1.9610 c         1 MOL      0.462437
    129 O19         7.5130    1.2940   -3.1980 o         1 MOL     -0.565904
    130 C41         7.8850    3.0900   -0.2660 c3        1 MOL      0.161390
    131 C42         9.3300    3.0800   -0.8230 c3        1 MOL     -0.335563
    132 O20         7.7770    2.2250    0.8670 oh        1 MOL     -0.594057
    133 H60         5.4140    2.0130   -0.0130 hn        1 MOL      0.328822
    134 H61         6.8740    3.5650   -2.0770 h1        1 MOL      0.091125
    135 H62         7.7700    4.1410    0.0230 h1        1 MOL      0.061694
    136 H63         8.3480    2.5460    1.5740 ho        1 MOL      0.418731
    137 H64         9.4460    3.9660   -1.4460 hc        1 MOL      0.093882
    138 H65        10.0760    3.1310   -0.0350 hc        1 MOL      0.093882
    139 H66         9.5610    2.1720   -1.3830 hc        1 MOL      0.093882
    140 N12         7.3570    0.3980   -1.1970 n         1 MOL     -0.060185
    141 C43         7.4190   -1.0310   -1.5410 c3        1 MOL     -0.473832
    142 C44         6.7580   -1.8930   -0.4990 c         1 MOL      0.773848
    143 O21         6.8710   -1.6480    0.6990 o         1 MOL     -0.549774
    144 C45         8.8850   -1.4930   -1.7180 c3        1 MOL     -0.032759
    145 C46         9.8210   -1.6480   -0.4960 c3        1 MOL     -0.006953
    146 C47        11.2580   -1.8830   -0.9450 c3        1 MOL     -0.013717
    147 C48        11.3240   -3.2670   -1.5820 c3        1 MOL      0.006612
    148 N13        12.7460   -3.6070   -1.8270 n4        1 MOL     -0.072422
    149 H67         7.2290    0.6950   -0.2360 hn        1 MOL      0.149598
    150 H68         6.9410   -1.1800   -2.5120 h1        1 MOL      0.204373
    151 H69         9.3200   -0.8590   -2.4830 hc        1 MOL      0.056892
    152 H70         8.8280   -2.4790   -2.1730 hc        1 MOL      0.056892
    153 H71         9.4060   -2.5150    0.0140 hc        1 MOL      0.034782
    154 H72         9.7880   -0.8060    0.1980 hc        1 MOL      0.034782
    155 H73        12.0390   -1.8780   -0.1750 hc        1 MOL      0.028484
    156 H74        11.4940   -1.0580   -1.6070 hc        1 MOL      0.028484
    157 H75        10.7740   -3.2000   -2.5080 hx        1 MOL      0.058027
    158 H76        10.8610   -3.9500   -0.8660 hx        1 MOL      0.058027
    159 H77        13.3900   -2.8450   -1.9370 hn        1 MOL      0.169711
    160 H78        13.1930   -4.2250   -1.1630 hn        1 MOL      0.169711
    161 H79        12.8000   -4.0510   -2.7360 hn        1 MOL      0.169711
    162 N14         6.1380   -3.0330   -0.8410 n         1 MOL     -0.592857
    163 C49         5.2620   -3.7830    0.0940 c3        1 MOL      0.229745
    164 C50         3.8710   -3.1370    0.2740 c         1 MOL      0.260478
    165 O22         3.5390   -2.9060    1.4060 o         1 MOL     -0.458939
    166 C51         5.1620   -5.2530   -0.2920 c3        1 MOL     -0.283402
    167 C52         4.3550   -6.1850    0.6620 c3        1 MOL      0.061796
    168 C53         2.8600   -5.9320    0.4520 c         1 MOL      0.638049
    169 O23         2.2330   -5.3470    1.3770 o         1 MOL     -0.655610
    170 O24         2.2910   -6.5730   -0.4170 o         1 MOL     -0.655610
    171 H80         6.2160   -3.3510   -1.7970 hn        1 MOL      0.310435
    172 H81         5.7360   -3.7010    1.0800 h1        1 MOL      0.052275
    173 H82         6.1460   -5.7020   -0.3980 hc        1 MOL      0.078301
    174 H83         4.7500   -5.3960   -1.2860 hc        1 MOL      0.078301
    175 H84         4.6350   -6.2110    1.7100 hc        1 MOL     -0.023216
    176 H85         4.5510   -7.1900    0.2770 hc        1 MOL     -0.023216
    177 N15         3.0110   -2.7480   -0.7360 n         1 MOL     -0.320266
    178 C54         3.0430   -3.1460   -2.1780 c3        1 MOL     -0.023858
    179 H86         2.2450   -2.6330   -2.7140 h1        1 MOL      0.051428
    180 H87         4.0060   -2.8700   -2.6110 h1        1 MOL      0.051428
    181 H88         2.9030   -4.2230   -2.2620 h1        1 MOL      0.051428
    182 H89         2.1260   -2.3360   -0.4910 hn        1 MOL      0.295464
    183 Ca1         1.7030   -3.5890    3.2330 Ca        1 MOL      1.744215
    184 O25        -0.2730   -2.2120    4.4540 oh        1 MOL     -0.858343
    185 H90        -0.1830   -2.2550    5.4060 ho        1 MOL      0.422711
    186 H91        -0.9940   -1.6140    4.3020 ho        1 MOL      0.422711
    187 O26         0.3630   -5.4270    4.2560 oh        1 MOL     -0.858343
    188 H92         0.4860   -6.0510    4.9810 ho        1 MOL      0.422711
    189 H93        -0.5770   -5.4450    4.0900 ho        1 MOL      0.422711
    190 O27         2.4740   -3.3230    5.8060 oh        1 MOL     -0.858343
    191 H94         2.4430   -2.5830    6.4170 ho        1 MOL      0.422711
    192 H95         2.6140   -4.0870    6.3560 ho        1 MOL      0.422711
    193 O28         4.1330   -4.5990    3.9620 oh        1 MOL     -0.858343
    194 H96         4.5550   -4.1140    4.6760 ho        1 MOL      0.422711
    195 H97         4.3430   -5.5140    4.1410 ho        1 MOL      0.422711
    196 O29         2.4990   -1.0540    3.6940 oh        1 MOL     -0.858343
    197 H98         3.1500   -0.5730    3.1960 ho        1 MOL      0.422711
    198 H99         2.2260   -0.4510    4.3930 ho        1 MOL      0.422711
@<TRIPOS>BOND
     1    1    2 1   
     2    1    4 1   
     3    1    5 1   
     4    1    6 1   
     5    2    3 2   
     6    2    7 1   
     7    7    8 1   
     8    7   15 1   
     9    8    9 1   
    10    8   11 1   
    11    8   16 1   
    12    9   10 2   
    13    9   19 1   
    14   11   12 1   
    15   11   17 1   
    16   11   18 1   
    17   12   13 1   
    18   12   14 1   
    19   19   20 1   
    20   19   28 1   
    21   20   21 1   
    22   20   23 1   
    23   20   29 1   
    24   21   22 2   
    25   21   41 1   
    26   23   24 1   
    27   23   30 1   
    28   23   31 1   
    29   24   25 1   
    30   24   32 1   
    31   24   33 1   
    32   25   26 1   
    33   25   34 1   
    34   25   35 1   
    35   26   27 1   
    36   26   36 1   
    37   26   37 1   
    38   27   38 1   
    39   27   39 1   
    40   27   40 1   
    41   41   42 1   
    42   41   49 1   
    43   42   43 1   
    44   42   45 1   
    45   42   50 1   
    46   43   44 2   
    47   43   53 1   
    48   45   46 1   
    49   45   51 1   
    50   45   52 1   
    51   46   47 1   
    52   46   48 1   
    53   53   54 1   
    54   53   57 1   
    55   54   55 1   
    56   54   58 1   
    57   54   59 1   
    58   55   56 2   
    59   55   60 1   
    60   60   61 1   
    61   60   68 1   
    62   61   62 1   
    63   61   64 1   
    64   61   69 1   
    65   62   63 2   
    66   62   72 1   
    67   64   65 1   
    68   64   70 1   
    69   64   71 1   
    70   65   66 1   
    71   65   67 1   
    72   72   73 1   
    73   72   76 1   
    74   73   74 1   
    75   73   77 1   
    76   73   78 1   
    77   74   75 2   
    78   74   79 1   
    79   79   80 1   
    80   79   86 1   
    81   80   81 1   
    82   80   83 1   
    83   80   87 1   
    84   81   82 2   
    85   81   93 1   
    86   83   84 1   
    87   83   85 1   
    88   83   88 1   
    89   84   90 1   
    90   84   91 1   
    91   84   92 1   
    92   85   89 1   
    93   93   94 1   
    94   93  101 1   
    95   94   95 1   
    96   94   97 1   
    97   94  102 1   
    98   95   96 2   
    99   95  112 1   
   100   97   98 1   
   101   97   99 1   
   102   97  103 1   
   103   98  100 1   
   104   98  104 1   
   105   98  105 1   
   106   99  106 1   
   107   99  107 1   
   108   99  108 1   
   109  100  109 1   
   110  100  110 1   
   111  100  111 1   
   112  112  113 1   
   113  112  119 1   
   114  113  114 1   
   115  113  116 1   
   116  113  120 1   
   117  114  115 2   
   118  114  126 1   
   119  116  117 1   
   120  116  118 1   
   121  116  121 1   
   122  117  123 1   
   123  117  124 1   
   124  117  125 1   
   125  118  122 1   
   126  126  127 1   
   127  126  133 1   
   128  127  128 1   
   129  127  130 1   
   130  127  134 1   
   131  128  129 2   
   132  128  140 1   
   133  130  131 1   
   134  130  132 1   
   135  130  135 1   
   136  131  137 1   
   137  131  138 1   
   138  131  139 1   
   139  132  136 1   
   140  140  141 1   
   141  140  149 1   
   142  141  142 1   
   143  141  144 1   
   144  141  150 1   
   145  142  143 2   
   146  142  162 1   
   147  144  145 1   
   148  144  151 1   
   149  144  152 1   
   150  145  146 1   
   151  145  153 1   
   152  145  154 1   
   153  146  147 1   
   154  146  155 1   
   155  146  156 1   
   156  147  148 1   
   157  147  157 1   
   158  147  158 1   
   159  148  159 1   
   160  148  160 1   
   161  148  161 1   
   162  162  163 1   
   163  162  171 1   
   164  163  164 1   
   165  163  166 1   
   166  163  172 1   
   167  164  165 2   
   168  164  177 1   
   169  166  167 1   
   170  166  173 1   
   171  166  174 1   
   172  167  168 1   
   173  167  175 1   
   174  167  176 1   
   175  168  169 1   
   176  168  170 1   
   177  177  178 1   
   178  177  182 1   
   179  178  179 1   
   180  178  180 1   
   181  178  181 1   
   182  184  185 1   
   183  184  186 1   
   184  187  188 1   
   185  187  189 1   
   186  190  191 1   
   187  190  192 1   
   188  193  194 1   
   189  193  195 1   
   190  196  197 1   
   191  196  198 1   
@<TRIPOS>SUBSTRUCTURE
     1 MOL         1 TEMP              0 ****  ****    0 ROOT
