@<TRIPOS>MOLECULE
MOL
  175   173     1     0     0
SMALL
resp


@<TRIPOS>ATOM
      1 C1         -6.8850    7.8310    1.7700 c3        1 MOL     -0.443566
      2 C2         -7.6280    7.0080    0.6540 c         1 MOL      0.774344
      3 O1         -7.7720    7.3620   -0.4960 o         1 MOL     -0.601060
      4 H1         -6.0030    7.2810    2.1000 hc        1 MOL      0.106233
      5 H2         -6.5800    8.7970    1.3670 hc        1 MOL      0.106233
      6 H3         -7.5550    7.9840    2.6160 hc        1 MOL      0.106233
      7 N1         -8.3130    5.9520    1.1250 n         1 MOL     -0.732222
      8 C3         -9.0640    4.9970    0.2840 c3        1 MOL      0.490209
      9 C4         -8.1810    3.8290   -0.3360 c         1 MOL      0.351078
     10 O2         -8.6940    2.7980   -0.9070 o         1 MOL     -0.469910
     11 C5        -10.2460    4.4240    1.0660 c3        1 MOL     -0.429536
     12 C6        -11.4110    3.8350    0.1930 c         1 MOL      0.724700
     13 O3        -12.2140    3.0630    0.7760 o         1 MOL     -0.724761
     14 O4        -11.3860    4.1320   -1.0010 o         1 MOL     -0.724761
     15 H4         -8.1710    5.7250    2.0950 hn        1 MOL      0.311312
     16 H5         -9.3500    5.5090   -0.6330 h1        1 MOL      0.047889
     17 H6        -10.8530    5.2570    1.4140 hc        1 MOL      0.065999
     18 H7        -10.0090    3.7960    1.9230 hc        1 MOL      0.065999
     19 N2         -6.8970    4.1450   -0.5030 n         1 MOL     -0.447386
     20 C7         -5.8550    3.3040   -1.1760 c3        1 MOL      0.291186
     21 C8         -5.0310    2.6470   -0.1060 c         1 MOL      0.456850
     22 O5         -4.5490    3.2610    0.8390 o         1 MOL     -0.533683
     23 C9         -4.9620    4.2200   -1.9910 c3        1 MOL     -0.270615
     24 H8         -6.5820    5.0700   -0.2350 hn        1 MOL      0.226487
     25 H9         -6.4030    2.5340   -1.7220 h1        1 MOL      0.045996
     26 H10        -5.3560    4.7760   -2.8460 hc        1 MOL      0.075779
     27 H11        -4.4620    4.8420   -1.2550 hc        1 MOL      0.075779
     28 H12        -4.1990    3.6170   -2.4970 hc        1 MOL      0.075779
     29 N3         -4.8910    1.2850   -0.0850 n         1 MOL     -0.359195
     30 C10        -5.5100    0.2720   -0.9340 c3        1 MOL     -0.022422
     31 C11        -5.6540   -1.1550   -0.2980 c         1 MOL      0.447068
     32 O6         -4.8240   -1.5170    0.5480 o         1 MOL     -0.447708
     33 C12        -4.7200    0.1060   -2.2570 c3        1 MOL     -0.079577
     34 C13        -3.2150   -0.2730   -2.0160 c         1 MOL      0.548003
     35 O7         -2.4120    0.6130   -1.5780 o         1 MOL     -0.668798
     36 O8         -2.7820   -1.4190   -2.2200 o         1 MOL     -0.668798
     37 H13        -4.2980    1.0000    0.6910 hn        1 MOL      0.260713
     38 H14        -6.4870    0.6490   -1.2410 h1        1 MOL      0.029599
     39 H15        -4.8740    0.9980   -2.8710 hc        1 MOL      0.032269
     40 H16        -5.2210   -0.6730   -2.8360 hc        1 MOL      0.032269
     41 N4         -6.7170   -1.8610   -0.7460 n         1 MOL     -0.353668
     42 C14        -7.0100   -3.2650   -0.4490 c3        1 MOL      0.005000
     43 C15        -6.8450   -4.1800   -1.6550 c         1 MOL      0.589649
     44 O9         -7.7480   -4.3650   -2.4350 o         1 MOL     -0.547143
     45 H17        -7.3660   -1.4330   -1.3980 hn        1 MOL      0.311280
     46 H18        -8.0580   -3.3620   -0.1920 h1        1 MOL      0.052941
     47 H19        -6.3990   -3.5110    0.4220 h1        1 MOL      0.052941
     48 N5         -5.6660   -4.8240   -1.8210 n         1 MOL     -0.591579
     49 C16        -4.3820   -4.4940   -1.2510 c3        1 MOL      0.104063
     50 C17        -4.1320   -5.0510    0.1470 c         1 MOL      0.493428
     51 O10        -4.0630   -6.3180    0.3430 o         1 MOL     -0.564978
     52 C18        -3.2880   -4.8300   -2.2340 c3        1 MOL     -0.011119
     53 C19        -1.9220   -4.4140   -1.7780 c         1 MOL      0.418249
     54 N6         -0.9080   -4.7390   -2.5430 n         1 MOL     -0.613723
     55 O11        -1.6840   -3.6960   -0.7850 o         1 MOL     -0.622854
     56 H20        -5.6320   -5.4770   -2.5880 hn        1 MOL      0.327977
     57 H21        -4.4170   -3.4240   -1.0520 h1        1 MOL      0.091835
     58 H22        -3.4630   -4.2260   -3.1280 hc        1 MOL      0.033759
     59 H23        -3.3310   -5.8700   -2.5470 hc        1 MOL      0.033759
     60 H24        -1.1730   -5.1480   -3.4180 hn        1 MOL      0.320956
     61 H25         0.0270   -4.4070   -2.3340 hn        1 MOL      0.320956
     62 N7         -4.1420   -4.2180    1.1560 n         1 MOL     -0.235848
     63 C20        -3.9030   -4.5310    2.6320 c3        1 MOL     -0.109431
     64 C21        -2.4020   -4.8200    2.9790 c         1 MOL      0.467043
     65 O12        -2.1200   -5.6520    3.8800 o         1 MOL     -0.580940
     66 H26        -4.1900   -3.2500    0.8760 hn        1 MOL      0.191384
     67 H27        -4.6250   -5.2790    2.9620 h1        1 MOL      0.094730
     68 H28        -4.1690   -3.6420    3.2080 h1        1 MOL      0.094730
     69 N8         -1.3840   -4.2790    2.3350 n         1 MOL     -0.289770
     70 C22         0.0650   -4.6170    2.3010 c3        1 MOL      0.050831
     71 C23         0.9110   -3.3110    2.0060 c         1 MOL      0.298062
     72 O13         0.5090   -2.5230    1.1600 o         1 MOL     -0.444371
     73 C24         0.3520   -5.6980    1.2350 c3        1 MOL      0.273433
     74 C25         1.7920   -6.1000    1.1910 c3        1 MOL     -0.449248
     75 O14        -0.4380   -6.8570    1.6500 oh        1 MOL     -0.598133
     76 H29        -1.5980   -3.5440    1.6750 hn        1 MOL      0.246168
     77 H30         0.3690   -4.8370    3.3240 h1        1 MOL      0.037116
     78 H31         0.1120   -5.3980    0.2210 h1        1 MOL      0.199718
     79 H32        -0.1420   -7.0920    2.5320 ho        1 MOL      0.391551
     80 H33         1.8050   -7.0900    0.7270 hc        1 MOL      0.110244
     81 H34         2.3620   -5.4180    0.5610 hc        1 MOL      0.110244
     82 H35         2.1830   -6.1540    2.2090 hc        1 MOL      0.110244
     83 N9          2.0930   -3.1590    2.5970 n         1 MOL     -0.273087
     84 C26         3.1290   -2.1890    2.2220 c3        1 MOL      0.216595
     85 C27         3.9210   -2.7360    1.0670 c         1 MOL      0.042822
     86 O15         4.5670   -3.7180    1.2710 o         1 MOL     -0.490645
     87 C28         4.0610   -1.7460    3.4030 c3        1 MOL      0.172654
     88 C29         5.2120   -0.7490    3.0190 c3        1 MOL      0.144399
     89 C30         3.1250   -1.1920    4.5240 c3        1 MOL     -0.191623
     90 C31         6.0740   -0.2740    4.1560 c3        1 MOL     -0.298067
     91 H36         2.3680   -3.9510    3.1680 hn        1 MOL      0.254314
     92 H37         2.6820   -1.2530    1.8740 h1        1 MOL     -0.036104
     93 H38         4.4830   -2.6870    3.7520 hc        1 MOL     -0.034927
     94 H39         4.7720    0.1000    2.5130 hc        1 MOL     -0.010070
     95 H40         5.8630   -1.2980    2.3420 hc        1 MOL     -0.010070
     96 H41         3.6680   -0.9470    5.4430 hc        1 MOL      0.028225
     97 H42         2.5750   -0.3460    4.1240 hc        1 MOL      0.028225
     98 H43         2.4500   -1.9890    4.8280 hc        1 MOL      0.028225
     99 H44         6.4500   -1.0690    4.8010 hc        1 MOL      0.062302
    100 H45         6.8160    0.4570    3.8450 hc        1 MOL      0.062302
    101 H46         5.4240    0.3480    4.7770 hc        1 MOL      0.062302
    102 N10         3.6970   -2.2310   -0.1550 n         1 MOL      0.062997
    103 C32         4.4310   -2.6950   -1.3120 c3        1 MOL      0.084557
    104 C33         5.7260   -1.8590   -1.6570 c         1 MOL      0.463502
    105 O16         6.3300   -2.0800   -2.6870 o         1 MOL     -0.538735
    106 C34         3.5100   -2.7740   -2.5130 c3        1 MOL      0.162721
    107 C35         2.1180   -3.3590   -2.2220 c         1 MOL      0.672042
    108 O17         2.0790   -4.5530   -1.8760 o         1 MOL     -0.694808
    109 O18         1.1160   -2.5910   -2.3250 o         1 MOL     -0.694808
    110 H47         3.0620   -1.4480   -0.2150 hn        1 MOL      0.031121
    111 H48         4.7690   -3.7200   -1.1370 h1        1 MOL      0.051654
    112 H49         4.0270   -3.3230   -3.3080 hc        1 MOL     -0.081221
    113 H50         3.3320   -1.7900   -2.9570 hc        1 MOL     -0.081221
    114 N11         5.9060   -0.7360   -0.9380 n         1 MOL     -0.330416
    115 C36         6.9790    0.2840   -1.2130 c3        1 MOL      0.156329
    116 C37         6.5970    1.6140   -0.5810 c         1 MOL      0.358644
    117 O19         6.1490    1.6020    0.5380 o         1 MOL     -0.482896
    118 C38         8.3270   -0.1020   -0.6370 c3        1 MOL     -0.350436
    119 C39         9.4550    0.8890   -0.9350 ca        1 MOL      0.174930
    120 C40         9.8370    1.8690    0.0220 ca        1 MOL     -0.171028
    121 C41        10.1640    0.7550   -2.1930 ca        1 MOL     -0.171028
    122 C42        11.0840    2.5390   -0.1650 ca        1 MOL     -0.134527
    123 C43        11.1750    1.6720   -2.4380 ca        1 MOL     -0.134527
    124 C44        11.6580    2.5200   -1.4260 ca        1 MOL     -0.090028
    125 H51         5.1450   -0.4970   -0.3310 hn        1 MOL      0.183196
    126 H52         7.0680    0.4100   -2.2960 h1        1 MOL      0.032167
    127 H53         8.5830   -1.0610   -1.1010 hc        1 MOL      0.126313
    128 H54         8.2600   -0.1500    0.4540 hc        1 MOL      0.126313
    129 H55         9.3700    1.9220    0.9930 ha        1 MOL      0.140557
    130 H56         9.9030    0.0020   -2.9220 ha        1 MOL      0.140557
    131 H57        11.4470    3.1650    0.6460 ha        1 MOL      0.112834
    132 H58        11.5890    1.6950   -3.4300 ha        1 MOL      0.112834
    133 H59        12.5290    3.1110   -1.6670 ha        1 MOL      0.091639
    134 N12         6.7440    2.7730   -1.2130 n         1 MOL      0.007546
    135 C45         6.8700    4.1020   -0.5820 c3        1 MOL     -0.260332
    136 C46         5.6640    4.7180    0.0550 c         1 MOL      0.801879
    137 O20         5.6780    5.8660    0.4340 o         1 MOL     -0.602624
    138 C47         7.4410    5.0700   -1.7150 c3        1 MOL     -0.056687
    139 C48         6.9700    4.4220   -2.9850 c3        1 MOL     -0.035558
    140 C49         6.9250    2.9640   -2.6640 c3        1 MOL      0.050673
    141 H60         7.6590    4.0850    0.1660 h1        1 MOL      0.090102
    142 H61         7.0540    6.0850   -1.6240 hc        1 MOL      0.048765
    143 H62         8.5250    5.1020   -1.8090 hc        1 MOL      0.048765
    144 H63         6.0090    4.8290   -3.2750 hc        1 MOL      0.030824
    145 H64         7.7340    4.5180   -3.7580 hc        1 MOL      0.030824
    146 H65         6.1360    2.5660   -3.2960 h1        1 MOL      0.018247
    147 H66         7.8200    2.4420   -3.0020 h1        1 MOL      0.018247
    148 N13         4.6100    3.8690    0.1920 n         1 MOL     -0.447619
    149 C50         3.2650    4.2950    0.6300 c3        1 MOL     -0.240488
    150 C51         3.2420    4.5090    2.1640 c         1 MOL      0.480029
    151 O21         2.1760    4.7310    2.7520 o         1 MOL     -0.480072
    152 C52         2.1290    3.2070    0.3330 c3        1 MOL      0.026272
    153 C53         2.3250    1.8300    0.9690 c3        1 MOL     -0.395412
    154 C54         1.2860    0.8470    0.4200 c         1 MOL      0.856963
    155 O22         1.7000   -0.0630   -0.3720 o         1 MOL     -0.713341
    156 O23         0.0700    0.8840    0.6770 o         1 MOL     -0.713341
    157 H67         4.8270    2.8780    0.1930 hn        1 MOL      0.186442
    158 H68         3.0580    5.1840    0.0220 h1        1 MOL      0.169456
    159 H69         2.0140    2.9340   -0.7130 hc        1 MOL      0.057951
    160 H70         1.1390    3.5940    0.5560 hc        1 MOL      0.057951
    161 H71         2.1490    1.9950    2.0350 hc        1 MOL      0.124459
    162 H72         3.3590    1.5360    0.8100 hc        1 MOL      0.124459
    163 N14         4.4320    4.5420    2.8490 n         1 MOL     -0.194589
    164 C55         4.6240    4.9860    4.2260 c3        1 MOL     -0.210961
    165 H73         5.6060    4.6660    4.5770 h1        1 MOL      0.091065
    166 H74         4.5600    6.0730    4.2710 h1        1 MOL      0.091065
    167 H75         3.8530    4.5490    4.8610 h1        1 MOL      0.091065
    168 H76         5.2970    4.3350    2.3680 hn        1 MOL      0.212657
    169 Ca1        -0.4800   -1.1840   -0.9730 Ca        1 MOL      1.706767
    170 O24         0.5910    0.3290   -2.9800 oh        1 MOL     -0.885080
    171 H77         0.3830    1.1470   -3.4160 ho        1 MOL      0.417055
    172 H78         1.2380   -0.0890   -3.5580 ho        1 MOL      0.417055
    173 O25        -2.1990   -1.4710    1.2180 oh        1 MOL     -0.885080
    174 H79        -1.9940   -0.6950    1.7400 ho        1 MOL      0.417055
    175 H80        -3.1590   -1.4430    1.1110 ho        1 MOL      0.417055
@<TRIPOS>BOND
     1    1    2 1   
     2    1    4 1   
     3    1    5 1   
     4    1    6 1   
     5    2    3 2   
     6    2    7 1   
     7    7    8 1   
     8    7   15 1   
     9    8    9 1   
    10    8   11 1   
    11    8   16 1   
    12    9   10 2   
    13    9   19 1   
    14   11   12 1   
    15   11   17 1   
    16   11   18 1   
    17   12   13 1   
    18   12   14 1   
    19   19   20 1   
    20   19   24 1   
    21   20   21 1   
    22   20   23 1   
    23   20   25 1   
    24   21   22 2   
    25   21   29 1   
    26   23   26 1   
    27   23   27 1   
    28   23   28 1   
    29   29   30 1   
    30   29   37 1   
    31   30   31 1   
    32   30   33 1   
    33   30   38 1   
    34   31   32 2   
    35   31   41 1   
    36   33   34 1   
    37   33   39 1   
    38   33   40 1   
    39   34   35 1   
    40   34   36 1   
    41   41   42 1   
    42   41   45 1   
    43   42   43 1   
    44   42   46 1   
    45   42   47 1   
    46   43   44 2   
    47   43   48 1   
    48   48   49 1   
    49   48   56 1   
    50   49   50 1   
    51   49   52 1   
    52   49   57 1   
    53   50   51 2   
    54   50   62 1   
    55   52   53 1   
    56   52   58 1   
    57   52   59 1   
    58   53   54 1   
    59   53   55 2   
    60   54   60 1   
    61   54   61 1   
    62   62   63 1   
    63   62   66 1   
    64   63   64 1   
    65   63   67 1   
    66   63   68 1   
    67   64   65 2   
    68   64   69 1   
    69   69   70 1   
    70   69   76 1   
    71   70   71 1   
    72   70   73 1   
    73   70   77 1   
    74   71   72 2   
    75   71   83 1   
    76   73   74 1   
    77   73   75 1   
    78   73   78 1   
    79   74   80 1   
    80   74   81 1   
    81   74   82 1   
    82   75   79 1   
    83   83   84 1   
    84   83   91 1   
    85   84   85 1   
    86   84   87 1   
    87   84   92 1   
    88   85   86 2   
    89   85  102 1   
    90   87   88 1   
    91   87   89 1   
    92   87   93 1   
    93   88   90 1   
    94   88   94 1   
    95   88   95 1   
    96   89   96 1   
    97   89   97 1   
    98   89   98 1   
    99   90   99 1   
   100   90  100 1   
   101   90  101 1   
   102  102  103 1   
   103  102  110 1   
   104  103  104 1   
   105  103  106 1   
   106  103  111 1   
   107  104  105 2   
   108  104  114 1   
   109  106  107 1   
   110  106  112 1   
   111  106  113 1   
   112  107  108 1   
   113  107  109 1   
   114  114  115 1   
   115  114  125 1   
   116  115  116 1   
   117  115  118 1   
   118  115  126 1   
   119  116  117 2   
   120  116  134 1   
   121  118  119 1   
   122  118  127 1   
   123  118  128 1   
   124  119  120 ar  
   125  119  121 ar  
   126  120  122 ar  
   127  120  129 1   
   128  121  123 ar  
   129  121  130 1   
   130  122  124 ar  
   131  122  131 1   
   132  123  124 ar  
   133  123  132 1   
   134  124  133 1   
   135  134  135 1   
   136  134  140 1   
   137  135  136 1   
   138  135  138 1   
   139  135  141 1   
   140  136  137 2   
   141  136  148 1   
   142  138  139 1   
   143  138  142 1   
   144  138  143 1   
   145  139  140 1   
   146  139  144 1   
   147  139  145 1   
   148  140  146 1   
   149  140  147 1   
   150  148  149 1   
   151  148  157 1   
   152  149  150 1   
   153  149  152 1   
   154  149  158 1   
   155  150  151 2   
   156  150  163 1   
   157  152  153 1   
   158  152  159 1   
   159  152  160 1   
   160  153  154 1   
   161  153  161 1   
   162  153  162 1   
   163  154  155 1   
   164  154  156 1   
   165  163  164 1   
   166  163  168 1   
   167  164  165 1   
   168  164  166 1   
   169  164  167 1   
   170  170  171 1   
   171  170  172 1   
   172  173  174 1   
   173  173  175 1   
@<TRIPOS>SUBSTRUCTURE
     1 MOL         1 TEMP              0 ****  ****    0 ROOT
