@<TRIPOS>MOLECULE
MOL
  181   177     1     0     0
SMALL
resp


@<TRIPOS>ATOM
      1 C1         -8.0570    4.3600    4.9770 c3        1 MOL     -0.418921
      2 C2         -7.0480    4.5750    3.8320 c         1 MOL      0.727412
      3 O1         -6.3890    5.5950    3.7770 o         1 MOL     -0.595698
      4 H1         -8.1790    3.2920    5.1570 hc        1 MOL      0.109893
      5 H2         -7.6880    4.8420    5.8820 hc        1 MOL      0.109893
      6 H3         -9.0190    4.7930    4.7000 hc        1 MOL      0.109893
      7 N1         -6.9300    3.6820    2.8500 n         1 MOL     -0.625583
      8 C3         -7.8030    2.5250    2.5310 c3        1 MOL      0.267423
      9 C4         -8.6420    2.5730    1.2130 c         1 MOL      0.407198
     10 O2         -9.6570    1.8850    1.0960 o         1 MOL     -0.526784
     11 C5         -6.9820    1.1490    2.5670 c3        1 MOL     -0.336228
     12 C6         -5.7270    1.1860    1.6590 c         1 MOL      0.680996
     13 O3         -4.5820    0.8360    2.0600 o         1 MOL     -0.685444
     14 O4         -5.8130    1.5660    0.4900 o         1 MOL     -0.685444
     15 H4         -6.2060    3.9360    2.1850 hn        1 MOL      0.339003
     16 H5         -8.5330    2.3460    3.3250 h1        1 MOL      0.027657
     17 H6         -7.6910    0.3670    2.3060 hc        1 MOL      0.095239
     18 H7         -6.8040    0.9290    3.6180 hc        1 MOL      0.095239
     19 N2         -8.1330    3.3960    0.2580 n         1 MOL     -0.471261
     20 C7         -8.8260    3.6260   -0.9860 c3        1 MOL      0.164783
     21 C8         -8.8550    2.3960   -1.8960 c         1 MOL      0.406343
     22 O5         -9.6350    2.3670   -2.8540 o         1 MOL     -0.540492
     23 C9         -8.2730    4.8780   -1.7000 c3        1 MOL     -0.217312
     24 H8         -7.1520    3.5640    0.3960 hn        1 MOL      0.300827
     25 H9         -9.8410    3.9630   -0.7690 h1        1 MOL      0.083425
     26 H10        -8.5790    5.0060   -2.7330 hc        1 MOL      0.063153
     27 H11        -8.6500    5.7720   -1.1950 hc        1 MOL      0.063153
     28 H12        -7.1830    4.9280   -1.6200 hc        1 MOL      0.063153
     29 N3         -8.0750    1.3270   -1.5530 n         1 MOL     -0.206869
     30 C10        -8.0260    0.0760   -2.2740 c3        1 MOL     -0.047898
     31 C11        -7.7730   -1.2280   -1.4820 c         1 MOL      0.375197
     32 O6         -7.6700   -2.3090   -2.0770 o         1 MOL     -0.471608
     33 C12        -7.0900    0.1760   -3.4920 c3        1 MOL     -0.128432
     34 C13        -5.6890    0.7080   -3.0780 c         1 MOL      0.830690
     35 O7         -5.0690    1.6090   -3.6680 o         1 MOL     -0.777319
     36 O8         -5.0710    0.1320   -2.1900 o         1 MOL     -0.777319
     37 H13        -7.4890    1.3270   -0.7270 hn        1 MOL      0.214680
     38 H14        -8.9850   -0.1140   -2.7730 h1        1 MOL      0.092183
     39 H15        -7.5220    0.8980   -4.1770 hc        1 MOL      0.039018
     40 H16        -7.0400   -0.7930   -3.9990 hc        1 MOL      0.039018
     41 N4         -7.6790   -0.9950   -0.1590 n         1 MOL     -0.179080
     42 C14        -7.4730   -2.0560    0.7360 c3        1 MOL     -0.035477
     43 C15        -6.0050   -2.3930    0.9180 c         1 MOL      0.568805
     44 O9         -5.1640   -1.6380    0.4320 o         1 MOL     -0.435159
     45 H17        -7.6260   -0.1030    0.3190 hn        1 MOL      0.087877
     46 H18        -7.9590   -2.9190    0.2710 h1        1 MOL      0.043165
     47 H19        -7.9440   -1.9510    1.7210 h1        1 MOL      0.043165
     48 N5         -5.7250   -3.4180    1.6980 n         1 MOL     -0.534239
     49 C16        -4.4190   -3.8610    2.1390 c3        1 MOL      0.092345
     50 C17        -3.5460   -4.1200    0.9010 c         1 MOL      0.532010
     51 O10        -3.9740   -4.7620   -0.0290 o         1 MOL     -0.510052
     52 C18        -4.6190   -5.2020    2.9330 c3        1 MOL     -0.159566
     53 C19        -3.3360   -5.5630    3.6540 c         1 MOL      0.645175
     54 N6         -3.2890   -5.4420    4.9720 n         1 MOL     -0.843552
     55 O11        -2.3520   -5.8730    3.0680 o         1 MOL     -0.520022
     56 H20        -6.4770   -3.9590    2.0990 hn        1 MOL      0.287148
     57 H21        -4.0680   -3.0340    2.7710 h1        1 MOL      0.044707
     58 H22        -4.7000   -6.0730    2.2720 hc        1 MOL      0.060330
     59 H23        -5.4760   -5.2620    3.6130 hc        1 MOL      0.060330
     60 H24        -4.0330   -5.1110    5.5840 hn        1 MOL      0.376325
     61 H25        -2.3600   -5.6790    5.2780 hn        1 MOL      0.376325
     62 N7         -2.3030   -3.6190    0.8500 n         1 MOL     -0.487819
     63 C20        -1.4440   -3.7370   -0.3620 c3        1 MOL     -0.029156
     64 C21        -1.6160   -2.5810   -1.3740 c         1 MOL      0.781496
     65 O12        -2.1270   -1.5180   -1.1110 o         1 MOL     -0.643557
     66 H26        -2.0140   -2.9710    1.5710 hn        1 MOL      0.306298
     67 H27        -1.7760   -4.6480   -0.8520 h1        1 MOL      0.126878
     68 H28        -0.3930   -3.8860   -0.1170 h1        1 MOL      0.126878
     69 N8         -0.9200   -2.6410   -2.5140 n         1 MOL     -0.661651
     70 C22        -0.1360   -3.7990   -2.9020 c3        1 MOL     -0.088886
     71 C23         1.3470   -3.6840   -2.3190 c         1 MOL      0.384472
     72 O13         1.7950   -4.6660   -1.7900 o         1 MOL     -0.464804
     73 C24         0.0210   -3.7750   -4.4730 c3        1 MOL      0.555343
     74 C25         0.5040   -5.0480   -4.9310 c3        1 MOL     -0.602073
     75 O14        -1.2730   -3.6360   -5.0420 oh        1 MOL     -0.632096
     76 H29        -0.8960   -1.8240   -3.1090 hn        1 MOL      0.355264
     77 H30        -0.5590   -4.7200   -2.5160 h1        1 MOL      0.089808
     78 H31         0.6270   -2.9740   -4.8740 h1        1 MOL      0.039407
     79 H32        -1.7760   -4.2410   -4.4930 ho        1 MOL      0.385559
     80 H33         0.4430   -5.0960   -6.0150 hc        1 MOL      0.137719
     81 H34         1.4870   -5.3170   -4.5410 hc        1 MOL      0.137719
     82 H35        -0.0320   -5.9200   -4.5500 hc        1 MOL      0.137719
     83 N9          1.8710   -2.4190   -2.2180 n         1 MOL     -0.463091
     84 C26         3.0600   -2.0560   -1.4070 c3        1 MOL      0.511749
     85 C27         2.6200   -1.5820   -0.0040 c         1 MOL      0.384558
     86 O15         1.4770   -1.1950    0.3060 o         1 MOL     -0.492715
     87 C28         3.9750   -1.0540   -2.1710 c3        1 MOL     -0.222590
     88 C29         3.1590    0.1710   -2.6470 c3        1 MOL      0.155290
     89 C30         4.5560   -1.7730   -3.4140 c3        1 MOL     -0.111719
     90 C31         3.8930    1.2980   -3.2650 c3        1 MOL     -0.214966
     91 H36         1.2730   -1.7110   -2.6070 hn        1 MOL      0.188145
     92 H37         3.6050   -3.0030   -1.3430 h1        1 MOL      0.019539
     93 H38         4.7430   -0.7330   -1.4630 hc        1 MOL      0.029779
     94 H39         2.4920    0.5770   -1.8740 hc        1 MOL     -0.008182
     95 H40         2.4530   -0.1960   -3.4020 hc        1 MOL     -0.008182
     96 H41         5.1720   -1.1440   -4.0630 hc        1 MOL      0.027217
     97 H42         5.2450   -2.5470   -3.1010 hc        1 MOL      0.027217
     98 H43         3.7640   -2.2990   -3.9450 hc        1 MOL      0.027217
     99 H44         4.8580    1.3680   -2.7730 hc        1 MOL      0.046474
    100 H45         3.8270    1.3440   -4.3590 hc        1 MOL      0.046474
    101 H46         3.4810    2.2560   -2.9600 hc        1 MOL      0.046474
    102 N10         3.4140   -1.5820    1.0520 n         1 MOL     -0.358116
    103 C32         4.8130   -2.0140    1.0530 c3        1 MOL     -0.026791
    104 C33         5.8640   -0.8540    0.9110 c         1 MOL      0.465678
    105 O16         5.7660    0.1100    1.6010 o         1 MOL     -0.463003
    106 C34         5.1960   -2.8650    2.2590 c3        1 MOL     -0.122443
    107 C35         4.1370   -3.9160    2.6290 c         1 MOL      0.614890
    108 O17         4.0480   -4.9160    1.8300 o         1 MOL     -0.694352
    109 O18         3.4310   -3.7550    3.6890 o         1 MOL     -0.694352
    110 H47         3.0640   -1.1230    1.8760 hn        1 MOL      0.293110
    111 H48         4.8310   -2.6470    0.1640 h1        1 MOL      0.003970
    112 H49         5.3130   -2.1910    3.1110 hc        1 MOL      0.033437
    113 H50         6.1660   -3.3450    2.1150 hc        1 MOL      0.033437
    114 N11         6.8740   -1.0990    0.0550 n         1 MOL     -0.314463
    115 C36         7.8770   -0.1140   -0.2370 c3        1 MOL      0.392489
    116 C37         7.7300    0.3670   -1.6850 c         1 MOL      0.090103
    117 O19         7.2780   -0.3880   -2.5350 o         1 MOL     -0.443764
    118 C38         9.2250   -0.7580    0.1780 c3        1 MOL     -0.109622
    119 C39         9.2180   -1.1810    1.6410 ca        1 MOL     -0.047864
    120 C40         8.5160   -0.3500    2.5990 ca        1 MOL     -0.125260
    121 C41         9.7370   -2.4190    2.0160 ca        1 MOL     -0.125260
    122 C42         8.4430   -0.7700    3.9140 ca        1 MOL     -0.044956
    123 C43         9.7140   -2.7830    3.3510 ca        1 MOL     -0.044956
    124 C44         9.1480   -1.9100    4.2720 ca        1 MOL     -0.204727
    125 H51         6.8510   -1.8780   -0.5910 hn        1 MOL      0.225003
    126 H52         7.6990    0.7280    0.4310 h1        1 MOL      0.049007
    127 H53        10.1050   -0.1540   -0.0450 hc        1 MOL      0.040848
    128 H54         9.3830   -1.6510   -0.4290 hc        1 MOL      0.040848
    129 H55         8.1960    0.6430    2.3330 ha        1 MOL      0.087977
    130 H56        10.1520   -3.1030    1.2890 ha        1 MOL      0.087977
    131 H57         7.9870   -0.2150    4.7170 ha        1 MOL      0.093596
    132 H58        10.1120   -3.7430    3.6430 ha        1 MOL      0.093596
    133 H59         9.1490   -2.1890    5.3170 ha        1 MOL      0.110687
    134 N12         8.1620    1.6200   -1.9360 n         1 MOL      0.011778
    135 C45         8.7430    2.6110   -1.0290 c3        1 MOL      0.161558
    136 C46         7.7080    3.0560    0.0430 c         1 MOL      0.315111
    137 O20         7.9630    3.0580    1.2190 o         1 MOL     -0.485017
    138 C47         9.3790    3.7410   -1.8230 c3        1 MOL      0.054777
    139 C48         9.6790    3.0120   -3.0880 c3        1 MOL     -0.188154
    140 C49         8.6230    1.9410   -3.2970 c3        1 MOL      0.014947
    141 H60         9.5650    2.0630   -0.5720 h1        1 MOL     -0.039053
    142 H61         8.6220    4.5210   -1.9430 hc        1 MOL      0.014186
    143 H62        10.2500    4.1790   -1.3490 hc        1 MOL      0.014186
    144 H63         9.7890    3.6790   -3.9420 hc        1 MOL      0.057146
    145 H64        10.6270    2.4900   -2.9710 hc        1 MOL      0.057146
    146 H65         7.7880    2.3560   -3.8590 h1        1 MOL      0.041057
    147 H66         9.0590    1.0820   -3.8030 h1        1 MOL      0.041057
    148 N13         6.5110    3.4470   -0.4230 n         1 MOL     -0.396613
    149 C50         5.4840    4.0140    0.4630 c3        1 MOL      0.173509
    150 C51         6.0710    5.3660    1.0380 c         1 MOL      0.474870
    151 O21         6.2280    6.3510    0.3320 o         1 MOL     -0.582628
    152 C52         4.1410    4.2650   -0.1350 c3        1 MOL      0.021670
    153 C53         3.1180    3.1400    0.0090 c3        1 MOL     -0.002298
    154 C54         1.7210    3.3780   -0.5970 c         1 MOL      0.592236
    155 O22         0.7780    2.5850   -0.3040 o         1 MOL     -0.663455
    156 O23         1.5960    4.3270   -1.4180 o         1 MOL     -0.663455
    157 H67         6.3300    3.3800   -1.4120 hn        1 MOL      0.277945
    158 H68         5.3640    3.2920    1.2670 h1        1 MOL      0.024260
    159 H69         4.2910    4.6070   -1.1590 hc        1 MOL      0.000776
    160 H70         3.8390    5.1490    0.4250 hc        1 MOL      0.000776
    161 H71         3.0180    2.9680    1.0830 hc        1 MOL     -0.024421
    162 H72         3.4930    2.2120   -0.4310 hc        1 MOL     -0.024421
    163 N14         6.3380    5.4330    2.3320 n         1 MOL     -0.334230
    164 C55         6.2570    4.4610    3.4430 c3        1 MOL     -0.158909
    165 H73         5.5480    3.6740    3.1850 h1        1 MOL      0.097692
    166 H74         7.2400    4.0220    3.6150 h1        1 MOL      0.097692
    167 H75         5.9220    4.9690    4.3470 h1        1 MOL      0.097692
    168 H76         6.6740    6.3480    2.5930 hn        1 MOL      0.257817
    169 Ca1        -3.4390    0.5900   -0.2740 Ca        1 MOL      1.730271
    170 O24        -3.7850    2.9910   -1.7320 oh        1 MOL     -0.858948
    171 H77        -3.1830    3.5220   -2.2390 ho        1 MOL      0.411868
    172 H78        -4.3780    2.6080   -2.3820 ho        1 MOL      0.411868
    173 O25        -1.1150    1.0050   -1.5000 oh        1 MOL     -0.858948
    174 H79        -0.5200    0.2920   -1.7230 ho        1 MOL      0.411868
    175 H80        -0.5380    1.7300   -1.2460 ho        1 MOL      0.411868
    176 O26        -1.8640    2.6420    0.8290 oh        1 MOL     -0.858948
    177 H81        -2.2710    3.4940    1.0070 ho        1 MOL      0.411868
    178 H82        -1.0440    2.8520    0.3670 ho        1 MOL      0.411868
    179 O27        -1.8310   -0.6250    1.6060 oh        1 MOL     -0.858948
    180 H83        -1.0320   -0.1450    1.8130 ho        1 MOL      0.411868
    181 H84        -1.9590   -1.2070    2.3480 ho        1 MOL      0.411868
@<TRIPOS>BOND
     1    1    2 1   
     2    1    4 1   
     3    1    5 1   
     4    1    6 1   
     5    2    3 2   
     6    2    7 1   
     7    7    8 1   
     8    7   15 1   
     9    8    9 1   
    10    8   11 1   
    11    8   16 1   
    12    9   10 2   
    13    9   19 1   
    14   11   12 1   
    15   11   17 1   
    16   11   18 1   
    17   12   13 1   
    18   12   14 1   
    19   19   20 1   
    20   19   24 1   
    21   20   21 1   
    22   20   23 1   
    23   20   25 1   
    24   21   22 2   
    25   21   29 1   
    26   23   26 1   
    27   23   27 1   
    28   23   28 1   
    29   29   30 1   
    30   29   37 1   
    31   30   31 1   
    32   30   33 1   
    33   30   38 1   
    34   31   32 2   
    35   31   41 1   
    36   33   34 1   
    37   33   39 1   
    38   33   40 1   
    39   34   35 1   
    40   34   36 1   
    41   41   42 1   
    42   41   45 1   
    43   42   43 1   
    44   42   46 1   
    45   42   47 1   
    46   43   44 2   
    47   43   48 1   
    48   48   49 1   
    49   48   56 1   
    50   49   50 1   
    51   49   52 1   
    52   49   57 1   
    53   50   51 2   
    54   50   62 1   
    55   52   53 1   
    56   52   58 1   
    57   52   59 1   
    58   53   54 1   
    59   53   55 2   
    60   54   60 1   
    61   54   61 1   
    62   62   63 1   
    63   62   66 1   
    64   63   64 1   
    65   63   67 1   
    66   63   68 1   
    67   64   65 2   
    68   64   69 1   
    69   69   70 1   
    70   69   76 1   
    71   70   71 1   
    72   70   73 1   
    73   70   77 1   
    74   71   72 2   
    75   71   83 1   
    76   73   74 1   
    77   73   75 1   
    78   73   78 1   
    79   74   80 1   
    80   74   81 1   
    81   74   82 1   
    82   75   79 1   
    83   83   84 1   
    84   83   91 1   
    85   84   85 1   
    86   84   87 1   
    87   84   92 1   
    88   85   86 2   
    89   85  102 1   
    90   87   88 1   
    91   87   89 1   
    92   87   93 1   
    93   88   90 1   
    94   88   94 1   
    95   88   95 1   
    96   89   96 1   
    97   89   97 1   
    98   89   98 1   
    99   90   99 1   
   100   90  100 1   
   101   90  101 1   
   102  102  103 1   
   103  102  110 1   
   104  103  104 1   
   105  103  106 1   
   106  103  111 1   
   107  104  105 2   
   108  104  114 1   
   109  106  107 1   
   110  106  112 1   
   111  106  113 1   
   112  107  108 1   
   113  107  109 1   
   114  114  115 1   
   115  114  125 1   
   116  115  116 1   
   117  115  118 1   
   118  115  126 1   
   119  116  117 2   
   120  116  134 1   
   121  118  119 1   
   122  118  127 1   
   123  118  128 1   
   124  119  120 ar  
   125  119  121 ar  
   126  120  122 ar  
   127  120  129 1   
   128  121  123 ar  
   129  121  130 1   
   130  122  124 ar  
   131  122  131 1   
   132  123  124 ar  
   133  123  132 1   
   134  124  133 1   
   135  134  135 1   
   136  134  140 1   
   137  135  136 1   
   138  135  138 1   
   139  135  141 1   
   140  136  137 2   
   141  136  148 1   
   142  138  139 1   
   143  138  142 1   
   144  138  143 1   
   145  139  140 1   
   146  139  144 1   
   147  139  145 1   
   148  140  146 1   
   149  140  147 1   
   150  148  149 1   
   151  148  157 1   
   152  149  150 1   
   153  149  152 1   
   154  149  158 1   
   155  150  151 2   
   156  150  163 1   
   157  152  153 1   
   158  152  159 1   
   159  152  160 1   
   160  153  154 1   
   161  153  161 1   
   162  153  162 1   
   163  154  155 1   
   164  154  156 1   
   165  163  164 1   
   166  163  168 1   
   167  164  165 1   
   168  164  166 1   
   169  164  167 1   
   170  170  171 1   
   171  170  172 1   
   172  173  174 1   
   173  173  175 1   
   174  176  177 1   
   175  176  178 1   
   176  179  180 1   
   177  179  181 1   
@<TRIPOS>SUBSTRUCTURE
     1 MOL         1 TEMP              0 ****  ****    0 ROOT
