@<TRIPOS>MOLECULE
MOL
  185   180     1     0     0
SMALL
resp


@<TRIPOS>ATOM
      1 C1         -5.8370    0.8170   -3.6420 c3        1 MOL     -0.507388
      2 C2         -6.4750    1.0570   -2.2220 c         1 MOL      0.538855
      3 O1         -5.7770    0.9840   -1.2030 o         1 MOL     -0.341350
      4 H1         -4.7930    1.1310   -3.6290 hc        1 MOL      0.147216
      5 H2         -5.8930   -0.2430   -3.8920 hc        1 MOL      0.147216
      6 H3         -6.3810    1.3960   -4.3880 hc        1 MOL      0.147216
      7 N1         -7.7480    1.4320   -2.0830 n         1 MOL     -0.523112
      8 C3         -8.4460    1.5680   -0.7820 c3        1 MOL      0.158536
      9 C4         -8.3070    0.4420    0.2620 c         1 MOL      0.357463
     10 O2         -8.3510    0.5600    1.5230 o         1 MOL     -0.514305
     11 C5         -8.1890    2.9120   -0.0770 c3        1 MOL     -0.293378
     12 C6         -8.2670    4.0890   -1.0690 c         1 MOL      0.775138
     13 O3         -7.7500    5.1950   -0.7420 o         1 MOL     -0.694167
     14 O4         -9.0550    4.0250   -2.0210 o         1 MOL     -0.694167
     15 H4         -8.3750    1.4290   -2.8730 hn        1 MOL      0.301588
     16 H5         -9.5110    1.5920   -1.0190 h1        1 MOL      0.034573
     17 H6         -7.1520    2.8850    0.2280 hc        1 MOL      0.097304
     18 H7         -8.8840    3.2490    0.6930 hc        1 MOL      0.097304
     19 N2         -8.0660   -0.7190   -0.3100 n         1 MOL     -0.305833
     20 C7         -7.8020   -2.0020    0.5220 c3        1 MOL      0.160233
     21 C8         -6.3300   -2.4780    0.4600 c         1 MOL      0.435817
     22 O5         -6.0950   -3.6390    0.9130 o         1 MOL     -0.543435
     23 C9         -8.7220   -3.1400    0.0900 c3        1 MOL     -0.229053
     24 C10       -10.1690   -2.9220    0.3920 c3        1 MOL      0.574336
     25 C11       -11.0390   -3.9940   -0.1980 c3        1 MOL     -0.385223
     26 C12       -12.5060   -3.6780   -0.1060 c3        1 MOL     -0.140557
     27 N3        -12.9730   -2.6490   -1.0970 n4        1 MOL     -0.373164
     28 H8         -8.2120   -0.8210   -1.3020 hn        1 MOL      0.201754
     29 H9         -7.9810   -1.9100    1.5930 h1        1 MOL      0.109450
     30 H10        -8.4500   -4.1000    0.5410 hc        1 MOL      0.031824
     31 H11        -8.7060   -3.2500   -0.9950 hc        1 MOL      0.031824
     32 H12       -10.3910   -1.9620   -0.0710 hc        1 MOL     -0.125402
     33 H13       -10.2790   -2.8190    1.4750 hc        1 MOL     -0.125402
     34 H14       -10.7750   -4.8860    0.3770 hc        1 MOL      0.131347
     35 H15       -10.7780   -4.2160   -1.2340 hc        1 MOL      0.131347
     36 H16       -12.6750   -3.3770    0.9290 hx        1 MOL      0.165566
     37 H17       -13.0190   -4.6250   -0.2890 hx        1 MOL      0.165566
     38 H18       -12.4370   -1.8080   -0.9240 hn        1 MOL      0.330111
     39 H19       -12.7960   -3.0190   -2.0220 hn        1 MOL      0.330111
     40 H20       -13.9600   -2.4600   -1.0800 hn        1 MOL      0.330111
     41 N4         -5.3740   -1.6510   -0.0490 n         1 MOL     -0.339645
     42 C13        -3.8820   -1.9000   -0.0100 c3        1 MOL     -0.265687
     43 C14        -3.3680   -2.3000    1.4000 c         1 MOL      0.633976
     44 O6         -3.5750   -1.5420    2.4380 o         1 MOL     -0.514694
     45 C15        -3.0750   -0.6220   -0.3110 c3        1 MOL      0.041119
     46 C16        -1.6120   -0.9470   -0.4440 c         1 MOL      0.303798
     47 O7         -1.0200   -0.9750   -1.5200 o         1 MOL     -0.619649
     48 O8         -0.8870   -1.1170    0.5160 o         1 MOL     -0.619649
     49 H21        -5.6560   -0.8060   -0.5280 hn        1 MOL      0.203327
     50 H22        -3.6140   -2.6630   -0.7400 h1        1 MOL      0.159428
     51 H23        -3.1690    0.0950    0.5070 hc        1 MOL      0.079803
     52 H24        -3.3900    0.0730   -1.0910 hc        1 MOL      0.079803
     53 N5         -2.6360   -3.3920    1.4770 n         1 MOL     -0.276283
     54 C17        -2.0570   -4.0590    2.7120 c3        1 MOL     -0.263201
     55 C18        -1.0450   -3.2770    3.5760 c         1 MOL      0.622392
     56 O9         -0.7120   -3.7570    4.6480 o         1 MOL     -0.568945
     57 H25        -2.1910   -3.6620    0.6140 hn        1 MOL      0.202631
     58 H26        -1.4090   -4.8490    2.3430 h1        1 MOL      0.142072
     59 H27        -2.8810   -4.3710    3.3480 h1        1 MOL      0.142072
     60 N6         -0.5370   -2.1390    3.1560 n         1 MOL     -0.440802
     61 C19         0.1660   -1.2910    4.0870 c3        1 MOL      0.267819
     62 C20        -0.2330    0.1710    3.8560 c         1 MOL      0.303556
     63 O10         0.5930    1.0560    3.9590 o         1 MOL     -0.486966
     64 C21         1.7310   -1.5980    4.0060 c3        1 MOL     -0.503608
     65 C22         2.4260   -1.1050    2.7130 c         1 MOL      0.935177
     66 N7          3.3490   -0.1580    2.6830 n         1 MOL     -0.864957
     67 O11         2.1210   -1.6500    1.6680 o         1 MOL     -0.828061
     68 H28        -0.8650   -1.6600    2.3260 hn        1 MOL      0.308108
     69 H29        -0.1110   -1.5140    5.1200 h1        1 MOL      0.054216
     70 H30         1.8670   -2.6770    4.0970 hc        1 MOL      0.143977
     71 H31         2.2110   -1.0720    4.8220 hc        1 MOL      0.143977
     72 H32         3.6170    0.3090    3.5370 hn        1 MOL      0.345386
     73 H33         3.8100   -0.0660    1.7840 hn        1 MOL      0.345386
     74 N8         -1.5000    0.4110    3.4980 n         1 MOL     -0.076899
     75 C23        -2.1080    1.7300    3.4100 c3        1 MOL     -0.376190
     76 C24        -1.5320    2.6050    2.2590 c         1 MOL      0.654841
     77 O12        -1.9230    3.7980    2.3670 o         1 MOL     -0.535075
     78 H34        -2.1040   -0.3820    3.3460 hn        1 MOL      0.094176
     79 H35        -2.0910    2.2510    4.3640 h1        1 MOL      0.167626
     80 H36        -3.0860    1.3940    3.0750 h1        1 MOL      0.167626
     81 N9         -0.6370    2.1240    1.4180 n         1 MOL     -0.500976
     82 C25         0.0110    2.7920    0.2550 c3        1 MOL      0.178858
     83 C26         1.3960    2.1640   -0.1050 c         1 MOL      0.300303
     84 O13         1.5770    0.9110   -0.0530 o         1 MOL     -0.331626
     85 C27        -0.9170    2.7490   -0.9950 c3        1 MOL      0.022301
     86 C28        -2.1170    3.6890   -1.0910 ca        1 MOL     -0.049358
     87 C29        -2.1990    4.6440   -2.1250 ca        1 MOL     -0.115616
     88 C30        -3.3030    3.4620   -0.3570 ca        1 MOL     -0.115616
     89 C31        -3.2760    5.5150   -2.2490 ca        1 MOL     -0.327366
     90 C32        -4.4140    4.2870   -0.5030 ca        1 MOL     -0.327366
     91 C33        -4.3820    5.4140   -1.3550 ca        1 MOL      0.510735
     92 O14        -5.4100    6.2620   -1.4970 oh        1 MOL     -0.594064
     93 H37        -0.5550    1.1100    1.3650 hn        1 MOL      0.293628
     94 H38         0.1820    3.8550    0.3980 h1        1 MOL      0.024207
     95 H39        -1.3320    1.7440   -1.0210 hc        1 MOL      0.008105
     96 H40        -0.2980    2.9040   -1.8760 hc        1 MOL      0.008105
     97 H41        -1.3350    4.8470   -2.7450 ha        1 MOL      0.094453
     98 H42        -3.3770    2.6210    0.3340 ha        1 MOL      0.094453
     99 H43        -3.1910    6.3830   -2.8840 ha        1 MOL      0.140893
    100 H44        -5.2670    4.1150    0.1290 ha        1 MOL      0.140893
    101 H45        -6.2570    5.9110   -1.2090 ho        1 MOL      0.422023
    102 N10         2.3620    2.9910   -0.5510 n         1 MOL     -0.368256
    103 C34         3.6840    2.4830   -0.9520 c3        1 MOL     -0.123351
    104 C35         4.5660    2.2390    0.2430 c         1 MOL      0.450411
    105 O15         4.8340    1.1070    0.5530 o         1 MOL     -0.278055
    106 C36         4.3010    3.5740   -1.8870 c3        1 MOL     -0.076822
    107 C37         3.4160    3.9460   -3.1290 c3        1 MOL      0.061151
    108 C38         5.5910    2.9980   -2.5480 c3        1 MOL     -0.426747
    109 C39         2.6190    2.7990   -3.7910 c3        1 MOL     -0.256968
    110 H46         2.2010    3.9820   -0.4700 hn        1 MOL      0.300554
    111 H47         3.5310    1.5700   -1.5220 h1        1 MOL      0.098615
    112 H48         4.5140    4.4960   -1.3450 hc        1 MOL      0.074493
    113 H49         3.9870    4.3340   -3.9680 hc        1 MOL      0.021367
    114 H50         2.7360    4.7630   -2.8730 hc        1 MOL      0.021367
    115 H51         6.0220    3.7270   -3.2400 hc        1 MOL      0.124902
    116 H52         6.3650    2.7920   -1.8140 hc        1 MOL      0.124902
    117 H53         5.3810    2.0640   -3.0790 hc        1 MOL      0.124902
    118 H54         3.1950    1.8740   -3.8680 hc        1 MOL      0.084293
    119 H55         1.7300    2.5690   -3.1990 hc        1 MOL      0.084293
    120 H56         2.3580    3.1600   -4.7820 hc        1 MOL      0.084293
    121 N11         4.8530    3.3020    1.0020 n         1 MOL     -0.347182
    122 C40         5.5280    3.1810    2.2960 c3        1 MOL     -0.031790
    123 C41         6.9650    2.6800    2.1210 c         1 MOL      0.228969
    124 O16         7.3240    1.8920    2.9220 o         1 MOL     -0.414036
    125 C42         5.5280    4.5680    2.9600 c3        1 MOL      0.112705
    126 O17         4.1780    5.1480    3.1030 oh        1 MOL     -0.551615
    127 H57         4.6000    4.2430    0.7230 hn        1 MOL      0.258928
    128 H58         4.9800    2.5740    3.0260 h1        1 MOL      0.163589
    129 H59         6.0740    5.2940    2.3630 h1        1 MOL      0.070954
    130 H60         5.9160    4.3360    3.9580 h1        1 MOL      0.070954
    131 H61         3.5570    4.4280    3.0650 ho        1 MOL      0.364404
    132 N12         7.6840    2.9570    1.0280 n         1 MOL     -0.192463
    133 C43         8.9160    2.2540    0.5730 c3        1 MOL      0.145464
    134 C44         8.9710    0.6920    0.4750 c         1 MOL      0.440093
    135 O18        10.0460    0.0880    0.5250 o         1 MOL     -0.531362
    136 C45        10.1450    2.9890    1.1730 c3        1 MOL     -0.293097
    137 H62         7.5200    3.8370    0.5560 hn        1 MOL      0.222912
    138 H63         9.0920    2.5170   -0.4790 h1        1 MOL      0.034686
    139 H64        10.3490    2.6220    2.1790 hc        1 MOL      0.090929
    140 H65        11.1080    2.8900    0.6700 hc        1 MOL      0.090929
    141 H66         9.9760    4.0610    1.2530 hc        1 MOL      0.090929
    142 N13         7.8430   -0.0150    0.4800 n         1 MOL     -0.252030
    143 C46         7.7320   -1.5130    0.4980 c3        1 MOL      0.297931
    144 C47         7.0330   -2.0910   -0.8000 c         1 MOL      0.390206
    145 O19         6.2940   -1.3480   -1.4470 o         1 MOL     -0.474974
    146 C48         6.9230   -1.8610    1.7460 c3        1 MOL     -0.215214
    147 H67         7.0040    0.5310    0.5830 hn        1 MOL     -0.007547
    148 H68         8.7220   -1.9460    0.3730 h1        1 MOL      0.013030
    149 H69         6.0660   -1.1910    1.8420 hc        1 MOL      0.072888
    150 H70         6.5710   -2.8930    1.6970 hc        1 MOL      0.072888
    151 H71         7.5690   -1.8040    2.6160 hc        1 MOL      0.072888
    152 N14         7.2470   -3.3820   -1.1670 n         1 MOL     -0.561006
    153 C49         6.5030   -4.0050   -2.2690 c3        1 MOL     -0.322788
    154 C50         6.6260   -3.3040   -3.6750 c         1 MOL      0.644698
    155 O20         5.9180   -3.6470   -4.6060 o         1 MOL     -0.532185
    156 C51         4.9840   -4.2530   -1.9300 c3        1 MOL     -0.048757
    157 C52         4.5690   -4.6570   -0.5220 c3        1 MOL      0.037771
    158 C53         3.1020   -5.2310   -0.3620 c         1 MOL      0.516066
    159 O21         2.9920   -6.4320   -0.3260 o         1 MOL     -0.613260
    160 O22         2.1780   -4.3690   -0.1960 o         1 MOL     -0.613260
    161 H72         7.7340   -3.9970   -0.5350 hn        1 MOL      0.378365
    162 H73         6.9680   -4.9930   -2.2850 h1        1 MOL      0.196865
    163 H74         4.7490   -5.0780   -2.5930 hc        1 MOL      0.054390
    164 H75         4.4400   -3.3580   -2.2380 hc        1 MOL      0.054390
    165 H76         4.5930   -3.7670    0.0880 hc        1 MOL      0.005767
    166 H77         5.2540   -5.4000   -0.1060 hc        1 MOL      0.005767
    167 N15         7.5920   -2.4120   -3.8240 n         1 MOL     -0.373505
    168 C54         7.8530   -1.8220   -5.1240 c3        1 MOL     -0.128770
    169 H78         8.9300   -1.7320   -5.2720 h1        1 MOL      0.085222
    170 H79         7.4310   -2.4570   -5.9030 h1        1 MOL      0.085222
    171 H80         7.3970   -0.8330   -5.1730 h1        1 MOL      0.085222
    172 H81         8.0130   -2.0040   -3.0030 hn        1 MOL      0.312668
    173 Ca1         1.2890   -2.0710   -0.7470 Ca        1 MOL      1.702062
    174 O23         3.6350   -1.0060   -1.2370 oh        1 MOL     -0.772169
    175 H82         3.5240   -0.1100   -0.8910 ho        1 MOL      0.377825
    176 H83         4.5770   -1.1240   -1.2820 ho        1 MOL      0.377825
    177 O24         1.5580   -0.7390   -3.1440 oh        1 MOL     -0.772169
    178 H84         0.8840   -0.3790   -3.7200 ho        1 MOL      0.377825
    179 H85         2.3270   -0.8350   -3.7070 ho        1 MOL      0.377825
    180 O25        -0.4640   -4.3080   -0.4480 oh        1 MOL     -0.772169
    181 H86        -1.1640   -4.9110   -0.6960 ho        1 MOL      0.377825
    182 H87         0.3420   -4.8000   -0.5800 ho        1 MOL      0.377825
    183 O26         1.3070   -3.4280   -3.0360 oh        1 MOL     -0.772169
    184 H88         0.5240   -3.7890   -3.4300 ho        1 MOL      0.377825
    185 H89         1.9770   -4.1060   -3.1710 ho        1 MOL      0.377825
@<TRIPOS>BOND
     1    1    2 1   
     2    1    4 1   
     3    1    5 1   
     4    1    6 1   
     5    2    3 2   
     6    2    7 1   
     7    7    8 1   
     8    7   15 1   
     9    8    9 1   
    10    8   11 1   
    11    8   16 1   
    12    9   10 2   
    13    9   19 1   
    14   11   12 1   
    15   11   17 1   
    16   11   18 1   
    17   12   13 1   
    18   12   14 1   
    19   19   20 1   
    20   19   28 1   
    21   20   21 1   
    22   20   23 1   
    23   20   29 1   
    24   21   22 2   
    25   21   41 1   
    26   23   24 1   
    27   23   30 1   
    28   23   31 1   
    29   24   25 1   
    30   24   32 1   
    31   24   33 1   
    32   25   26 1   
    33   25   34 1   
    34   25   35 1   
    35   26   27 1   
    36   26   36 1   
    37   26   37 1   
    38   27   38 1   
    39   27   39 1   
    40   27   40 1   
    41   41   42 1   
    42   41   49 1   
    43   42   43 1   
    44   42   45 1   
    45   42   50 1   
    46   43   44 2   
    47   43   53 1   
    48   45   46 1   
    49   45   51 1   
    50   45   52 1   
    51   46   47 1   
    52   46   48 1   
    53   53   54 1   
    54   53   57 1   
    55   54   55 1   
    56   54   58 1   
    57   54   59 1   
    58   55   56 2   
    59   55   60 1   
    60   60   61 1   
    61   60   68 1   
    62   61   62 1   
    63   61   64 1   
    64   61   69 1   
    65   62   63 2   
    66   62   74 1   
    67   64   65 1   
    68   64   70 1   
    69   64   71 1   
    70   65   66 1   
    71   65   67 2   
    72   66   72 1   
    73   66   73 1   
    74   74   75 1   
    75   74   78 1   
    76   75   76 1   
    77   75   79 1   
    78   75   80 1   
    79   76   77 2   
    80   76   81 1   
    81   81   82 1   
    82   81   93 1   
    83   82   83 1   
    84   82   85 1   
    85   82   94 1   
    86   83   84 2   
    87   83  102 1   
    88   85   86 1   
    89   85   95 1   
    90   85   96 1   
    91   86   87 ar  
    92   86   88 ar  
    93   87   89 ar  
    94   87   97 1   
    95   88   90 ar  
    96   88   98 1   
    97   89   91 ar  
    98   89   99 1   
    99   90   91 ar  
   100   90  100 1   
   101   91   92 1   
   102   92  101 1   
   103  102  103 1   
   104  102  110 1   
   105  103  104 1   
   106  103  106 1   
   107  103  111 1   
   108  104  105 2   
   109  104  121 1   
   110  106  107 1   
   111  106  108 1   
   112  106  112 1   
   113  107  109 1   
   114  107  113 1   
   115  107  114 1   
   116  108  115 1   
   117  108  116 1   
   118  108  117 1   
   119  109  118 1   
   120  109  119 1   
   121  109  120 1   
   122  121  122 1   
   123  121  127 1   
   124  122  123 1   
   125  122  125 1   
   126  122  128 1   
   127  123  124 2   
   128  123  132 1   
   129  125  126 1   
   130  125  129 1   
   131  125  130 1   
   132  126  131 1   
   133  132  133 1   
   134  132  137 1   
   135  133  134 1   
   136  133  136 1   
   137  133  138 1   
   138  134  135 2   
   139  134  142 1   
   140  136  139 1   
   141  136  140 1   
   142  136  141 1   
   143  142  143 1   
   144  142  147 1   
   145  143  144 1   
   146  143  146 1   
   147  143  148 1   
   148  144  145 2   
   149  144  152 1   
   150  146  149 1   
   151  146  150 1   
   152  146  151 1   
   153  152  153 1   
   154  152  161 1   
   155  153  154 1   
   156  153  156 1   
   157  153  162 1   
   158  154  155 2   
   159  154  167 1   
   160  156  157 1   
   161  156  163 1   
   162  156  164 1   
   163  157  158 1   
   164  157  165 1   
   165  157  166 1   
   166  158  159 1   
   167  158  160 1   
   168  167  168 1   
   169  167  172 1   
   170  168  169 1   
   171  168  170 1   
   172  168  171 1   
   173  174  175 1   
   174  174  176 1   
   175  177  178 1   
   176  177  179 1   
   177  180  181 1   
   178  180  182 1   
   179  183  184 1   
   180  183  185 1   
@<TRIPOS>SUBSTRUCTURE
     1 MOL         1 TEMP              0 ****  ****    0 ROOT
