@<TRIPOS>MOLECULE
MOL
  185   180     1     0     0
SMALL
resp


@<TRIPOS>ATOM
      1 C1          6.0050   -0.1880    5.8400 c3        1 MOL     -0.425660
      2 C2          5.3670    0.1160    4.4210 c         1 MOL      0.650978
      3 O1          4.2020    0.3890    4.2390 o         1 MOL     -0.583156
      4 H1          5.6730    0.5630    6.5570 hc        1 MOL      0.108200
      5 H2          5.6890   -1.1750    6.1770 hc        1 MOL      0.108200
      6 H3          7.0920   -0.1600    5.7640 hc        1 MOL      0.108200
      7 N1          6.1970   -0.0080    3.3550 n         1 MOL     -0.459654
      8 C3          5.7810    0.3000    1.9780 c3        1 MOL      0.095236
      9 C4          4.7230   -0.7140    1.4810 c         1 MOL      0.419519
     10 O2          3.6080   -0.4360    1.1590 o         1 MOL     -0.596647
     11 C5          6.9710    0.4690    0.9610 c3        1 MOL     -0.095311
     12 C6          8.1220   -0.5900    1.0380 c         1 MOL      0.678522
     13 O3          8.0690   -1.5290    1.8690 o         1 MOL     -0.660246
     14 O4          9.1150   -0.4530    0.2810 o         1 MOL     -0.660246
     15 H4          7.1810   -0.1920    3.4700 hn        1 MOL      0.248389
     16 H5          5.2930    1.2740    2.0040 h1        1 MOL      0.071884
     17 H6          7.4960    1.4000    1.1450 hc        1 MOL      0.022083
     18 H7          6.6120    0.4190   -0.0650 hc        1 MOL      0.022083
     19 N2          5.1790   -1.9550    1.4190 n         1 MOL     -0.039421
     20 C7          4.4350   -3.1250    1.0000 c3        1 MOL      0.058858
     21 C8          4.3620   -3.3060   -0.5290 c         1 MOL      0.367331
     22 O5          5.4530   -3.3350   -1.1050 o         1 MOL     -0.459783
     23 C9          4.8930   -4.3870    1.7780 c3        1 MOL     -0.014191
     24 C10         4.6340   -4.2700    3.2410 c3        1 MOL     -0.122260
     25 C11         5.2110   -5.4160    4.1000 c3        1 MOL      0.052333
     26 C12         4.9670   -5.2410    5.6140 c3        1 MOL      0.013177
     27 N3          5.6380   -6.2690    6.4370 n4        1 MOL     -0.286568
     28 H8          6.1730   -2.0680    1.5800 hn        1 MOL      0.083293
     29 H9          3.3900   -2.9880    1.2840 h1        1 MOL      0.021112
     30 H10         5.9130   -4.7270    1.5740 hc        1 MOL      0.031760
     31 H11         4.2890   -5.2310    1.4620 hc        1 MOL      0.031760
     32 H12         3.5910   -4.0330    3.4110 hc        1 MOL      0.018028
     33 H13         5.1190   -3.3630    3.5900 hc        1 MOL      0.018028
     34 H14         6.2820   -5.4910    3.9710 hc        1 MOL      0.032143
     35 H15         4.8920   -6.4420    3.9050 hc        1 MOL      0.032143
     36 H16         3.8950   -5.2770    5.8120 hx        1 MOL      0.079144
     37 H17         5.4290   -4.3100    5.9240 hx        1 MOL      0.079144
     38 H18         6.5830   -6.0610    6.7270 hn        1 MOL      0.304731
     39 H19         5.1290   -6.3690    7.3100 hn        1 MOL      0.304731
     40 H20         5.6530   -7.1520    5.9470 hn        1 MOL      0.304731
     41 N4          3.1560   -3.3710   -1.1720 n         1 MOL     -0.173067
     42 C13         2.9340   -3.5180   -2.6110 c3        1 MOL     -0.179503
     43 C14         3.3470   -2.2320   -3.3160 c         1 MOL      0.611995
     44 O6          3.0940   -1.1100   -2.8270 o         1 MOL     -0.534208
     45 C15         1.4810   -3.9180   -2.9170 c3        1 MOL     -0.108919
     46 C16         0.3810   -3.1640   -2.1430 c         1 MOL      0.650614
     47 O7          0.1540   -1.9880   -2.4770 o         1 MOL     -0.706571
     48 O8         -0.2570   -3.6760   -1.1660 o         1 MOL     -0.706571
     49 H21         2.3200   -3.2090   -0.6310 hn        1 MOL      0.123322
     50 H22         3.5540   -4.3490   -2.9200 h1        1 MOL      0.097526
     51 H23         1.3740   -4.9710   -2.6420 hc        1 MOL      0.053728
     52 H24         1.2390   -3.8860   -3.9730 hc        1 MOL      0.053728
     53 N5          4.0140   -2.3550   -4.4460 n         1 MOL     -0.435363
     54 C17         4.7840   -1.3390   -5.0600 c3        1 MOL      0.060812
     55 C18         6.1600   -1.1040   -4.3320 c         1 MOL      0.399628
     56 O9          7.0950   -1.9480   -4.3410 o         1 MOL     -0.520792
     57 H25         3.8630   -3.2610   -4.8540 hn        1 MOL      0.290689
     58 H26         4.1450   -0.4490   -5.0590 h1        1 MOL      0.064021
     59 H27         5.0080   -1.5880   -6.0980 h1        1 MOL      0.064021
     60 N6          6.3780    0.0270   -3.6980 n         1 MOL     -0.264969
     61 C19         5.7170    1.3060   -3.7320 c3        1 MOL      0.043799
     62 C20         6.0890    2.2270   -2.5650 c         1 MOL      0.552089
     63 O10         7.1750    2.7420   -2.5990 o         1 MOL     -0.540196
     64 C21         5.9510    2.0360   -5.1000 c3        1 MOL     -0.310076
     65 C22         5.0230    3.2060   -5.2330 c         1 MOL      0.684132
     66 N7          5.5440    4.3750   -5.4540 n         1 MOL     -0.779687
     67 O11         3.8070    3.1090   -5.1130 o         1 MOL     -0.580086
     68 H28         7.2730    0.0430   -3.2310 hn        1 MOL      0.283830
     69 H29         4.6770    0.9860   -3.6340 h1        1 MOL      0.067288
     70 H30         5.5490    1.3070   -5.8010 hc        1 MOL      0.093586
     71 H31         6.9950    2.2920   -5.2420 hc        1 MOL      0.093586
     72 H32         6.5270    4.5170   -5.6420 hn        1 MOL      0.365745
     73 H33         4.8940    5.1410   -5.5340 hn        1 MOL      0.365745
     74 N8          5.3190    2.4900   -1.4690 n         1 MOL     -0.376527
     75 C23         4.0070    1.9610   -1.1010 c3        1 MOL     -0.098023
     76 C24         3.1720    2.8860   -0.2710 c         1 MOL      0.625729
     77 O12         3.7180    3.5680    0.5630 o         1 MOL     -0.517651
     78 H34         5.7130    3.1930   -0.8690 hn        1 MOL      0.254963
     79 H35         4.1560    1.0500   -0.5220 h1        1 MOL      0.071821
     80 H36         3.4720    1.8370   -2.0440 h1        1 MOL      0.071821
     81 N9          1.8690    2.8230   -0.4780 n         1 MOL     -0.550300
     82 C25         0.8510    3.3690    0.3640 c3        1 MOL      0.123438
     83 C26        -0.3540    2.5190    0.4400 c         1 MOL      0.801972
     84 O13        -0.5490    1.5020   -0.2530 o         1 MOL     -0.663067
     85 C27         0.5670    4.8050   -0.0960 c3        1 MOL     -0.310242
     86 C28        -0.0320    5.6910    0.9430 ca        1 MOL      0.039006
     87 C29        -1.2760    6.2260    0.6840 ca        1 MOL     -0.083213
     88 C30         0.6620    6.0760    2.1130 ca        1 MOL     -0.083213
     89 C31        -1.8580    7.1350    1.5760 ca        1 MOL     -0.290816
     90 C32         0.0570    6.9110    3.0660 ca        1 MOL     -0.290816
     91 C33        -1.2430    7.4240    2.8490 ca        1 MOL      0.321591
     92 O14        -1.8490    8.3730    3.6390 oh        1 MOL     -0.478491
     93 H37         1.4690    2.1920   -1.1560 hn        1 MOL      0.304792
     94 H38         1.2570    3.4770    1.3720 h1        1 MOL      0.023961
     95 H39        -0.0230    4.7760   -1.0060 hc        1 MOL      0.135023
     96 H40         1.5490    5.2770   -0.2210 hc        1 MOL      0.135023
     97 H41        -1.6810    5.9020   -0.2580 ha        1 MOL      0.120256
     98 H42         1.6780    5.7710    2.2750 ha        1 MOL      0.120256
     99 H43        -2.7950    7.6180    1.3170 ha        1 MOL      0.149741
    100 H44         0.6270    7.3570    3.8690 ha        1 MOL      0.149741
    101 H45        -1.2670    8.5510    4.3790 ho        1 MOL      0.365100
    102 N10        -1.1890    2.8520    1.4670 n         1 MOL     -0.531404
    103 C34        -2.5250    2.3560    1.7160 c3        1 MOL     -0.061956
    104 C35        -3.3750    2.6790    0.4510 c         1 MOL      0.482457
    105 O15        -3.3070    3.7620   -0.1270 o         1 MOL     -0.505842
    106 C36        -3.2420    3.0940    2.8850 c3        1 MOL      0.035929
    107 C37        -2.7780    2.3670    4.2340 c3        1 MOL     -0.061198
    108 C38        -3.0400    4.5000    3.0140 c3        1 MOL      0.308012
    109 C39        -3.5220    2.8980    5.4970 c3        1 MOL     -0.134330
    110 H46        -1.0560    3.7420    1.9130 hn        1 MOL      0.241974
    111 H47        -2.4650    1.2830    1.8780 h1        1 MOL      0.114043
    112 H48        -4.3240    2.9400    2.8060 hc        1 MOL      0.016808
    113 H49        -1.6920    2.4010    4.3710 hc        1 MOL      0.031729
    114 H50        -2.9960    1.3110    4.0910 hc        1 MOL      0.031729
    115 H51        -2.0070    4.8320    3.1220 hc        1 MOL     -0.069589
    116 H52        -3.4480    4.9710    2.1120 hc        1 MOL     -0.069589
    117 H53        -3.6410    4.8420    3.8510 hc        1 MOL     -0.069589
    118 H54        -4.5570    3.2210    5.4840 hc        1 MOL      0.033868
    119 H55        -3.3730    2.1550    6.2830 hc        1 MOL      0.033868
    120 H56        -2.9630    3.7700    5.8080 hc        1 MOL      0.033868
    121 N11        -4.1920    1.7020    0.0200 n         1 MOL     -0.281450
    122 C40        -5.3520    1.8700   -0.8790 c3        1 MOL      0.181508
    123 C41        -5.5000    0.6530   -1.8040 c         1 MOL      0.277811
    124 O16        -5.2190   -0.4820   -1.3760 o         1 MOL     -0.328063
    125 C42        -6.6850    2.1600   -0.1380 c3        1 MOL     -0.157022
    126 O17        -7.1780    1.0190    0.5430 oh        1 MOL     -0.439896
    127 H57        -4.0440    0.7720    0.3830 hn        1 MOL      0.166536
    128 H58        -5.1050    2.8030   -1.3960 h1        1 MOL      0.019277
    129 H59        -7.4170    2.3330   -0.9260 h1        1 MOL      0.098260
    130 H60        -6.7010    2.9730    0.5910 h1        1 MOL      0.098260
    131 H61        -7.9430    1.2890    1.0650 ho        1 MOL      0.390837
    132 N12        -5.9200    0.8670   -3.0070 n         1 MOL     -0.334546
    133 C43        -6.3820   -0.1020   -3.9600 c3        1 MOL      0.121826
    134 C44        -7.3820   -1.0440   -3.3630 c         1 MOL      0.424993
    135 O18        -7.3750   -2.3420   -3.5650 o         1 MOL     -0.449954
    136 C45        -5.2500   -0.7980   -4.7400 c3        1 MOL     -0.373623
    137 H62        -6.1640    1.8400   -3.1420 hn        1 MOL      0.273860
    138 H63        -6.9000    0.5720   -4.6400 h1        1 MOL      0.073938
    139 H64        -4.7150   -1.5760   -4.1990 hc        1 MOL      0.121715
    140 H65        -5.7200   -1.1950   -5.6390 hc        1 MOL      0.121715
    141 H66        -4.5760   -0.0050   -5.0640 hc        1 MOL      0.121715
    142 N13        -8.2940   -0.3690   -2.6050 n         1 MOL     -0.564211
    143 C46        -9.3410   -1.0250   -1.7410 c3        1 MOL      0.593086
    144 C47        -8.9620   -2.2250   -0.8680 c         1 MOL      0.130576
    145 O19        -9.6780   -3.1910   -0.6170 o         1 MOL     -0.466908
    146 C48       -10.5540   -1.3470   -2.6070 c3        1 MOL     -0.618800
    147 H67        -8.1460    0.6190   -2.4410 hn        1 MOL      0.278911
    148 H68        -9.6690   -0.2710   -1.0240 h1        1 MOL     -0.055416
    149 H69       -10.2360   -2.0820   -3.3490 hc        1 MOL      0.162646
    150 H70       -11.2750   -1.7460   -1.9020 hc        1 MOL      0.162646
    151 H71       -10.7750   -0.4240   -3.1450 hc        1 MOL      0.162646
    152 N14        -7.7340   -2.1490   -0.3660 n         1 MOL      0.141792
    153 C49        -7.2000   -3.2880    0.3680 c3        1 MOL     -0.045324
    154 C50        -7.7710   -3.4330    1.7940 c         1 MOL      0.479085
    155 O20        -8.0140   -4.5750    2.1820 o         1 MOL     -0.544094
    156 C51        -5.6830   -3.3350    0.3270 c3        1 MOL      0.069852
    157 C52        -5.0230   -2.3210    1.2200 c3        1 MOL     -0.013650
    158 C53        -3.5640   -2.0670    0.9750 c         1 MOL      0.550308
    159 O21        -3.0860   -0.8880    0.9500 o         1 MOL     -0.663512
    160 O22        -2.7540   -3.0500    0.7700 o         1 MOL     -0.663512
    161 H72        -7.2490   -1.2650   -0.4300 hn        1 MOL     -0.159162
    162 H73        -7.4400   -4.1990   -0.1730 h1        1 MOL      0.111506
    163 H74        -5.3180   -3.1940   -0.6940 hc        1 MOL     -0.004280
    164 H75        -5.5060   -4.3490    0.6730 hc        1 MOL     -0.004280
    165 H76        -5.0720   -2.6180    2.2760 hc        1 MOL     -0.005433
    166 H77        -5.5300   -1.3640    1.1160 hc        1 MOL     -0.005433
    167 N15        -8.0890   -2.3590    2.4340 n         1 MOL     -0.202538
    168 C54        -8.6840   -2.3430    3.7780 c3        1 MOL     -0.206142
    169 H78        -9.3150   -1.4610    3.8860 h1        1 MOL      0.097285
    170 H79        -9.2880   -3.2400    3.9200 h1        1 MOL      0.097285
    171 H80        -7.8920   -2.3170    4.5270 h1        1 MOL      0.097285
    172 H81        -8.0160   -1.4690    1.9560 hn        1 MOL      0.179224
    173 Ca1        -0.8150   -1.2750   -0.1180 Ca        1 MOL      1.779342
    174 O23         0.7290   -2.6970    1.4880 oh        1 MOL     -0.885697
    175 O24        -2.4930   -0.8750   -2.0130 oh        1 MOL     -0.885697
    176 H82         0.8120   -3.6360    1.3480 ho        1 MOL      0.433647
    177 H83        -3.4270   -0.9020   -1.8230 ho        1 MOL      0.433647
    178 H84         1.3210   -2.5060    2.2110 ho        1 MOL      0.433647
    179 H85        -2.4220   -1.1410   -2.9220 ho        1 MOL      0.433647
    180 O25        -0.0120   -0.0100    2.3100 oh        1 MOL     -0.885697
    181 H86         0.4670    0.7890    2.5100 ho        1 MOL      0.433647
    182 H87         0.4770   -0.6980    2.7740 ho        1 MOL      0.433647
    183 O26         1.6290   -0.8140   -0.5140 oh        1 MOL     -0.885697
    184 H88         2.2980   -0.6100    0.1450 ho        1 MOL      0.433647
    185 H89         2.1200   -0.9230   -1.3290 ho        1 MOL      0.433647
@<TRIPOS>BOND
     1    1    2 1   
     2    1    4 1   
     3    1    5 1   
     4    1    6 1   
     5    2    3 2   
     6    2    7 1   
     7    7    8 1   
     8    7   15 1   
     9    8    9 1   
    10    8   11 1   
    11    8   16 1   
    12    9   10 2   
    13    9   19 1   
    14   11   12 1   
    15   11   17 1   
    16   11   18 1   
    17   12   13 1   
    18   12   14 1   
    19   19   20 1   
    20   19   28 1   
    21   20   21 1   
    22   20   23 1   
    23   20   29 1   
    24   21   22 2   
    25   21   41 1   
    26   23   24 1   
    27   23   30 1   
    28   23   31 1   
    29   24   25 1   
    30   24   32 1   
    31   24   33 1   
    32   25   26 1   
    33   25   34 1   
    34   25   35 1   
    35   26   27 1   
    36   26   36 1   
    37   26   37 1   
    38   27   38 1   
    39   27   39 1   
    40   27   40 1   
    41   41   42 1   
    42   41   49 1   
    43   42   43 1   
    44   42   45 1   
    45   42   50 1   
    46   43   44 2   
    47   43   53 1   
    48   45   46 1   
    49   45   51 1   
    50   45   52 1   
    51   46   47 1   
    52   46   48 1   
    53   53   54 1   
    54   53   57 1   
    55   54   55 1   
    56   54   58 1   
    57   54   59 1   
    58   55   56 2   
    59   55   60 1   
    60   60   61 1   
    61   60   68 1   
    62   61   62 1   
    63   61   64 1   
    64   61   69 1   
    65   62   63 2   
    66   62   74 1   
    67   64   65 1   
    68   64   70 1   
    69   64   71 1   
    70   65   66 1   
    71   65   67 2   
    72   66   72 1   
    73   66   73 1   
    74   74   75 1   
    75   74   78 1   
    76   75   76 1   
    77   75   79 1   
    78   75   80 1   
    79   76   77 2   
    80   76   81 1   
    81   81   82 1   
    82   81   93 1   
    83   82   83 1   
    84   82   85 1   
    85   82   94 1   
    86   83   84 2   
    87   83  102 1   
    88   85   86 1   
    89   85   95 1   
    90   85   96 1   
    91   86   87 ar  
    92   86   88 ar  
    93   87   89 ar  
    94   87   97 1   
    95   88   90 ar  
    96   88   98 1   
    97   89   91 ar  
    98   89   99 1   
    99   90   91 ar  
   100   90  100 1   
   101   91   92 1   
   102   92  101 1   
   103  102  103 1   
   104  102  110 1   
   105  103  104 1   
   106  103  106 1   
   107  103  111 1   
   108  104  105 2   
   109  104  121 1   
   110  106  107 1   
   111  106  108 1   
   112  106  112 1   
   113  107  109 1   
   114  107  113 1   
   115  107  114 1   
   116  108  115 1   
   117  108  116 1   
   118  108  117 1   
   119  109  118 1   
   120  109  119 1   
   121  109  120 1   
   122  121  122 1   
   123  121  127 1   
   124  122  123 1   
   125  122  125 1   
   126  122  128 1   
   127  123  124 2   
   128  123  132 1   
   129  125  126 1   
   130  125  129 1   
   131  125  130 1   
   132  126  131 1   
   133  132  133 1   
   134  132  137 1   
   135  133  134 1   
   136  133  136 1   
   137  133  138 1   
   138  134  135 2   
   139  134  142 1   
   140  136  139 1   
   141  136  140 1   
   142  136  141 1   
   143  142  143 1   
   144  142  147 1   
   145  143  144 1   
   146  143  146 1   
   147  143  148 1   
   148  144  145 2   
   149  144  152 1   
   150  146  149 1   
   151  146  150 1   
   152  146  151 1   
   153  152  153 1   
   154  152  161 1   
   155  153  154 1   
   156  153  156 1   
   157  153  162 1   
   158  154  155 2   
   159  154  167 1   
   160  156  157 1   
   161  156  163 1   
   162  156  164 1   
   163  157  158 1   
   164  157  165 1   
   165  157  166 1   
   166  158  159 1   
   167  158  160 1   
   168  167  168 1   
   169  167  172 1   
   170  168  169 1   
   171  168  170 1   
   172  168  171 1   
   173  174  176 1   
   174  174  178 1   
   175  175  177 1   
   176  175  179 1   
   177  180  181 1   
   178  180  182 1   
   179  183  184 1   
   180  183  185 1   
@<TRIPOS>SUBSTRUCTURE
     1 MOL         1 TEMP              0 ****  ****    0 ROOT
