@<TRIPOS>MOLECULE
MOL
  198   191     1     0     0
SMALL
resp


@<TRIPOS>ATOM
      1 C1          6.0640    6.9510   -4.0860 c3        1 MOL     -0.409293
      2 C2          5.2370    6.1250   -3.0230 c         1 MOL      0.766873
      3 O1          5.4130    4.9230   -2.8590 o         1 MOL     -0.563630
      4 H1          6.6940    7.6760   -3.5710 hc        1 MOL      0.095567
      5 H2          6.6890    6.2730   -4.6670 hc        1 MOL      0.095567
      6 H3          5.3790    7.4750   -4.7530 hc        1 MOL      0.095567
      7 N1          4.3890    6.9270   -2.3360 n         1 MOL     -0.560588
      8 C3          3.3690    6.4400   -1.3060 c3        1 MOL     -0.076910
      9 C4          3.9890    5.7340   -0.1220 c         1 MOL      0.564787
     10 O2          3.2830    4.9940    0.6090 o         1 MOL     -0.529634
     11 C5          2.2020    5.6180   -1.9930 c3        1 MOL     -0.277995
     12 C6          1.5970    6.2710   -3.2380 c         1 MOL      0.790389
     13 O3          1.9010    7.4350   -3.5240 o         1 MOL     -0.703126
     14 O4          0.7890    5.5400   -3.7960 o         1 MOL     -0.703126
     15 H4          4.2930    7.8890   -2.6070 hn        1 MOL      0.312947
     16 H5          2.8940    7.3470   -0.9500 h1        1 MOL      0.115019
     17 H6          1.4110    5.3500   -1.2990 hc        1 MOL      0.099864
     18 H7          2.5820    4.7480   -2.5210 hc        1 MOL      0.099864
     19 N2          5.2150    6.1140    0.1560 n         1 MOL     -0.352666
     20 C7          6.1450    5.6550    1.2560 c3        1 MOL      0.079747
     21 C8          6.6100    4.1750    1.2130 c         1 MOL      0.343273
     22 O5          7.6250    3.8260    1.8710 o         1 MOL     -0.549213
     23 C9          5.5580    5.9880    2.6570 c3        1 MOL     -0.141133
     24 C10         5.1060    7.4550    2.8360 c3        1 MOL      0.024352
     25 C11         4.1430    7.7160    4.0120 c3        1 MOL     -0.263121
     26 C12         4.0080    9.1880    4.2740 c3        1 MOL      0.263669
     27 N3          2.9270    9.4520    5.2810 n4        1 MOL     -0.261318
     28 H8          5.5940    6.7580   -0.5360 hn        1 MOL      0.183969
     29 H9          7.0100    6.3140    1.2610 h1        1 MOL      0.070037
     30 H10         6.3520    5.8170    3.3810 hc        1 MOL      0.080407
     31 H11         4.7240    5.2930    2.7120 hc        1 MOL      0.080407
     32 H12         4.6130    7.8700    1.9550 hc        1 MOL      0.028092
     33 H13         6.0240    7.9740    3.1230 hc        1 MOL      0.028092
     34 H14         4.4910    7.2820    4.9470 hc        1 MOL      0.087250
     35 H15         3.1450    7.4610    3.6450 hc        1 MOL      0.087250
     36 H16         3.9060    9.8200    3.3960 hx        1 MOL      0.016253
     37 H17         4.8800    9.5260    4.8350 hx        1 MOL      0.016253
     38 H18         2.8140   10.4400    5.4410 hn        1 MOL      0.261845
     39 H19         2.1400    8.9740    4.8830 hn        1 MOL      0.261845
     40 H20         3.0820    8.9840    6.1630 hn        1 MOL      0.261845
     41 N4          5.8730    3.2460    0.6110 n         1 MOL     -0.227081
     42 C13         6.0210    1.8940    0.5480 c3        1 MOL      0.251610
     43 C14         5.5880    1.3990   -0.8790 c         1 MOL      0.382462
     44 O6          4.5790    1.7880   -1.4400 o         1 MOL     -0.474023
     45 C15         5.0820    1.2820    1.5550 c3        1 MOL     -0.436507
     46 C16         5.1170   -0.2150    1.7920 c         1 MOL      1.020265
     47 O7          4.0780   -0.8180    2.1930 o         1 MOL     -0.840937
     48 O8          6.1360   -0.8760    1.6380 o         1 MOL     -0.840937
     49 H21         5.0940    3.5890    0.0580 hn        1 MOL      0.195735
     50 H22         7.0410    1.6200    0.7880 h1        1 MOL      0.065205
     51 H23         4.0810    1.6010    1.2910 hc        1 MOL      0.100873
     52 H24         5.4260    1.7190    2.4890 hc        1 MOL      0.100873
     53 N5          6.3960    0.5170   -1.5500 n         1 MOL     -0.308742
     54 C17         7.5800   -0.1620   -1.0670 c3        1 MOL     -0.208474
     55 C18         7.5000   -1.6340   -1.5530 c         1 MOL      0.574485
     56 O9          7.4810   -1.9120   -2.7590 o         1 MOL     -0.548419
     57 H25         6.1270    0.3080   -2.4950 hn        1 MOL      0.277855
     58 H26         7.7460   -0.0320    0.0080 h1        1 MOL      0.101418
     59 H27         8.4760    0.2870   -1.4860 h1        1 MOL      0.101418
     60 N6          7.5080   -2.5760   -0.5930 n         1 MOL     -0.449066
     61 C19         7.3440   -4.0460   -0.7950 c3        1 MOL      0.209242
     62 C20         5.8630   -4.4030   -0.6320 c         1 MOL      0.440377
     63 O10         5.0860   -3.7750    0.0600 o         1 MOL     -0.555632
     64 C21         8.2410   -4.9350    0.1270 c3        1 MOL     -0.243780
     65 C22         8.2020   -4.6950    1.6370 c         1 MOL      0.684788
     66 O11         7.3310   -3.9970    2.1530 o         1 MOL     -0.688917
     67 O12         9.1050   -5.1350    2.3950 o         1 MOL     -0.688917
     68 H28         7.3530   -2.2020    0.3320 hn        1 MOL      0.296707
     69 H29         7.5440   -4.3390   -1.8260 h1        1 MOL      0.016999
     70 H30         9.2620   -4.6620   -0.1270 hc        1 MOL      0.068248
     71 H31         8.0960   -5.9820   -0.1320 hc        1 MOL      0.068248
     72 N7          5.5320   -5.6630   -1.0080 n         1 MOL     -0.446645
     73 C23         4.1610   -6.2820   -0.7420 c3        1 MOL     -0.013400
     74 C24         2.9220   -5.5940   -1.4380 c         1 MOL      0.356055
     75 O13         1.8920   -6.2970   -1.6130 o         1 MOL     -0.515105
     76 H32         6.2050   -6.2190   -1.5300 hn        1 MOL      0.310048
     77 H33         4.0250   -6.3570    0.3300 h1        1 MOL      0.067283
     78 H34         4.1770   -7.3000   -1.1260 h1        1 MOL      0.067283
     79 N8          3.0980   -4.3220   -1.8280 n         1 MOL     -0.095225
     80 C25         2.1480   -3.7400   -2.7140 c3        1 MOL      0.049327
     81 C26         1.3510   -2.6340   -1.9920 c         1 MOL      0.251998
     82 O14         1.7520   -2.1580   -0.8930 o         1 MOL     -0.487901
     83 C27         2.8460   -3.1770   -4.0030 c3        1 MOL      0.245116
     84 C28         3.7160   -1.9970   -3.7440 c3        1 MOL     -0.248150
     85 O15         3.7600   -4.0900   -4.6140 oh        1 MOL     -0.674258
     86 H35         3.9250   -3.8320   -1.5090 hn        1 MOL      0.232135
     87 H36         1.4770   -4.5680   -2.9130 h1        1 MOL      0.062725
     88 H37         2.1710   -2.8840   -4.8100 h1        1 MOL      0.025838
     89 H38         3.9110   -3.8140   -5.5290 ho        1 MOL      0.426213
     90 H39         4.1140   -1.7600   -4.7320 hc        1 MOL      0.075521
     91 H40         3.1070   -1.1130   -3.5660 hc        1 MOL      0.075521
     92 H41         4.4350   -2.2020   -2.9640 hc        1 MOL      0.075521
     93 N9          0.3010   -2.0960   -2.5890 n         1 MOL     -0.074690
     94 C29        -0.4260   -0.8220   -2.1870 c3        1 MOL     -0.129988
     95 C30        -1.6870   -1.1440   -1.2950 c         1 MOL      0.497617
     96 O16        -2.3320   -0.1790   -0.8380 o         1 MOL     -0.532282
     97 C31        -0.8180    0.0100   -3.4590 c3        1 MOL      0.149245
     98 C32        -1.8420   -0.5750   -4.3830 c3        1 MOL      0.069734
     99 C33         0.4730    0.3720   -4.1480 c3        1 MOL     -0.299953
    100 C34        -2.8650    0.4230   -4.7160 c3        1 MOL     -0.207451
    101 H42         0.0080   -2.4210   -3.4910 hn        1 MOL      0.135760
    102 H43         0.2390   -0.1700   -1.6270 h1        1 MOL      0.148865
    103 H44        -1.1240    0.9260   -2.9580 hc        1 MOL      0.073227
    104 H45        -2.3510   -1.3930   -3.8790 hc        1 MOL     -0.013122
    105 H46        -1.3700   -1.1520   -5.1850 hc        1 MOL     -0.013122
    106 H47         1.0250   -0.3990   -4.6870 hc        1 MOL      0.084041
    107 H48         0.2000    1.1880   -4.8210 hc        1 MOL      0.084041
    108 H49         1.1960    0.8850   -3.5100 hc        1 MOL      0.084041
    109 H50        -3.5990   -0.1030   -5.3140 hc        1 MOL      0.055221
    110 H51        -3.4220    0.8840   -3.8900 hc        1 MOL      0.055221
    111 H52        -2.5510    1.2780   -5.3140 hc        1 MOL      0.055221
    112 N10        -2.0970   -2.4100   -1.0190 n         1 MOL     -0.420081
    113 C35        -3.0770   -2.8430   -0.0530 c3        1 MOL      0.083967
    114 C36        -4.2390   -3.6620   -0.5860 c         1 MOL      0.572416
    115 O17        -3.9370   -4.6450   -1.2420 o         1 MOL     -0.513819
    116 C37        -2.4040   -3.5630    1.1710 c3        1 MOL      0.380912
    117 C38        -1.1930   -2.8370    1.9070 c3        1 MOL     -0.377637
    118 O18        -3.3930   -3.6630    2.2510 oh        1 MOL     -0.651196
    119 H53        -1.5110   -3.1380   -1.4270 hn        1 MOL      0.200783
    120 H54        -3.4410   -1.9120    0.3870 h1        1 MOL      0.095298
    121 H55        -2.1650   -4.5770    0.8580 h1        1 MOL     -0.024522
    122 H56        -3.0690   -4.4170    2.7490 ho        1 MOL      0.385776
    123 H57        -0.7390   -3.5290    2.6280 hc        1 MOL      0.096907
    124 H58        -0.4130   -2.5760    1.2030 hc        1 MOL      0.096907
    125 H59        -1.5220   -1.9410    2.4380 hc        1 MOL      0.096907
    126 N11        -5.5450   -3.2630   -0.3230 n         1 MOL     -0.559384
    127 C39        -6.8270   -3.9360   -0.6390 c3        1 MOL     -0.021896
    128 C40        -8.0040   -3.0220   -0.7460 c         1 MOL      0.724019
    129 O19        -8.8620   -3.3300   -1.5040 o         1 MOL     -0.566327
    130 C41        -7.0530   -5.0290    0.4530 c3        1 MOL      0.294833
    131 C42        -8.0920   -6.1350    0.1410 c3        1 MOL     -0.382362
    132 O20        -7.4240   -4.4370    1.6640 oh        1 MOL     -0.629167
    133 H60        -5.7230   -2.5820    0.4020 hn        1 MOL      0.276016
    134 H61        -6.7260   -4.3820   -1.6320 h1        1 MOL      0.121735
    135 H62        -6.1010   -5.5010    0.7120 h1        1 MOL      0.024972
    136 H63        -7.0870   -5.0770    2.3000 ho        1 MOL      0.411577
    137 H64        -8.1320   -6.8510    0.9500 hc        1 MOL      0.099585
    138 H65        -9.0500   -5.6180    0.1090 hc        1 MOL      0.099585
    139 H66        -7.8300   -6.5910   -0.8190 hc        1 MOL      0.099585
    140 N12        -8.0490   -1.9420    0.0730 n         1 MOL     -0.680280
    141 C43        -9.2580   -1.0400    0.1770 c3        1 MOL      0.213897
    142 C44        -8.7460    0.3230    0.7370 c         1 MOL      0.574782
    143 O21        -8.0440    0.3890    1.7420 o         1 MOL     -0.499217
    144 C45       -10.3660   -1.6930    1.0440 c3        1 MOL     -0.292769
    145 C46       -11.7280   -1.0120    0.8320 c3        1 MOL     -0.043686
    146 C47       -12.8170   -1.6650    1.6510 c3        1 MOL      0.046936
    147 C48       -14.1320   -1.0900    1.1650 c3        1 MOL      0.060820
    148 N13       -15.3140   -1.7700    1.6900 n4        1 MOL     -0.188388
    149 H67        -7.3300   -1.8690    0.7630 hn        1 MOL      0.330573
    150 H68        -9.5660   -0.9370   -0.8690 h1        1 MOL      0.061635
    151 H69        -9.9850   -1.5890    2.0610 hc        1 MOL      0.129582
    152 H70       -10.3760   -2.7290    0.7110 hc        1 MOL      0.129582
    153 H71       -11.9200   -1.1530   -0.2340 hc        1 MOL      0.056345
    154 H72       -11.7040    0.0280    1.1470 hc        1 MOL      0.056345
    155 H73       -12.5660   -1.4820    2.7000 hc        1 MOL      0.010941
    156 H74       -12.9010   -2.7400    1.5370 hc        1 MOL      0.010941
    157 H75       -14.1430   -1.1150    0.0760 hx        1 MOL      0.056685
    158 H76       -14.1520   -0.0360    1.4610 hx        1 MOL      0.056685
    159 H77       -16.1000   -1.4340    1.1570 hn        1 MOL      0.227173
    160 H78       -15.3580   -2.7780    1.6530 hn        1 MOL      0.227173
    161 H79       -15.4000   -1.5730    2.6800 hn        1 MOL      0.227173
    162 N14        -9.3070    1.4720    0.1920 n         1 MOL     -0.664021
    163 C49        -9.2470    2.8140    0.7950 c3        1 MOL      0.580277
    164 C50        -7.8980    3.2740    1.3540 c         1 MOL      0.275657
    165 O22        -7.8900    3.8150    2.5010 o         1 MOL     -0.517273
    166 C51       -10.0720    3.8400   -0.1060 c3        1 MOL     -0.289983
    167 C52       -10.2150    5.1510    0.5550 c3        1 MOL     -0.110960
    168 C53       -11.0940    6.1760   -0.2200 c         1 MOL      0.713885
    169 O23       -12.0670    5.7540   -0.9060 o         1 MOL     -0.656675
    170 O24       -10.8890    7.3640   -0.0440 o         1 MOL     -0.656675
    171 H80       -10.0160    1.4140   -0.5290 hn        1 MOL      0.243031
    172 H81        -9.8030    2.6470    1.7210 h1        1 MOL     -0.044248
    173 H82       -10.9720    3.3230   -0.4210 hc        1 MOL      0.060940
    174 H83        -9.4820    4.0630   -1.0040 hc        1 MOL      0.060940
    175 H84        -9.2640    5.5860    0.8590 hc        1 MOL      0.031916
    176 H85       -10.7200    4.9130    1.4880 hc        1 MOL      0.031916
    177 N15        -6.7990    3.1200    0.5580 n         1 MOL     -0.317694
    178 C54        -6.6940    2.8580   -0.9400 c3        1 MOL      0.008265
    179 H86        -6.7690    1.7860   -1.1260 h1        1 MOL      0.051226
    180 H87        -7.5040    3.3730   -1.4560 h1        1 MOL      0.051226
    181 H88        -5.7360    3.2240   -1.3070 h1        1 MOL      0.051226
    182 H89        -5.9600    3.4080    1.0400 hn        1 MOL      0.281742
    183 Ca1         4.9800   -3.1200    2.6740 Ca        1 MOL      1.630782
    184 O25         4.1230   -5.8390    2.8080 oh        1 MOL     -0.751653
    185 H90         4.8870   -6.3830    2.6230 ho        1 MOL      0.382827
    186 H91         3.5000   -6.4350    3.2250 ho        1 MOL      0.382827
    187 O26         2.6150   -3.4960    1.4540 oh        1 MOL     -0.751653
    188 H92         2.5170   -3.0650    0.6050 ho        1 MOL      0.382827
    189 H93         1.7290   -3.7530    1.6950 ho        1 MOL      0.382827
    190 O27         2.9860   -3.0780    4.4220 oh        1 MOL     -0.751653
    191 H94         2.3480   -3.7690    4.2280 ho        1 MOL      0.382827
    192 H95         2.9820   -3.0070    5.3800 ho        1 MOL      0.382827
    193 O28         5.6850   -4.4780    4.7970 oh        1 MOL     -0.751653
    194 H96         6.1160   -5.3220    4.6190 ho        1 MOL      0.382827
    195 H97         5.3790   -4.5530    5.6940 ho        1 MOL      0.382827
    196 O29         6.1070   -1.5840    4.6090 oh        1 MOL     -0.751653
    197 H98         6.8390   -2.1390    4.8700 ho        1 MOL      0.382827
    198 H99         6.2190   -0.7880    5.1230 ho        1 MOL      0.382827
@<TRIPOS>BOND
     1    1    2 1   
     2    1    4 1   
     3    1    5 1   
     4    1    6 1   
     5    2    3 2   
     6    2    7 1   
     7    7    8 1   
     8    7   15 1   
     9    8    9 1   
    10    8   11 1   
    11    8   16 1   
    12    9   10 2   
    13    9   19 1   
    14   11   12 1   
    15   11   17 1   
    16   11   18 1   
    17   12   13 1   
    18   12   14 1   
    19   19   20 1   
    20   19   28 1   
    21   20   21 1   
    22   20   23 1   
    23   20   29 1   
    24   21   22 2   
    25   21   41 1   
    26   23   24 1   
    27   23   30 1   
    28   23   31 1   
    29   24   25 1   
    30   24   32 1   
    31   24   33 1   
    32   25   26 1   
    33   25   34 1   
    34   25   35 1   
    35   26   27 1   
    36   26   36 1   
    37   26   37 1   
    38   27   38 1   
    39   27   39 1   
    40   27   40 1   
    41   41   42 1   
    42   41   49 1   
    43   42   43 1   
    44   42   45 1   
    45   42   50 1   
    46   43   44 2   
    47   43   53 1   
    48   45   46 1   
    49   45   51 1   
    50   45   52 1   
    51   46   47 1   
    52   46   48 1   
    53   53   54 1   
    54   53   57 1   
    55   54   55 1   
    56   54   58 1   
    57   54   59 1   
    58   55   56 2   
    59   55   60 1   
    60   60   61 1   
    61   60   68 1   
    62   61   62 1   
    63   61   64 1   
    64   61   69 1   
    65   62   63 2   
    66   62   72 1   
    67   64   65 1   
    68   64   70 1   
    69   64   71 1   
    70   65   66 1   
    71   65   67 1   
    72   72   73 1   
    73   72   76 1   
    74   73   74 1   
    75   73   77 1   
    76   73   78 1   
    77   74   75 2   
    78   74   79 1   
    79   79   80 1   
    80   79   86 1   
    81   80   81 1   
    82   80   83 1   
    83   80   87 1   
    84   81   82 2   
    85   81   93 1   
    86   83   84 1   
    87   83   85 1   
    88   83   88 1   
    89   84   90 1   
    90   84   91 1   
    91   84   92 1   
    92   85   89 1   
    93   93   94 1   
    94   93  101 1   
    95   94   95 1   
    96   94   97 1   
    97   94  102 1   
    98   95   96 2   
    99   95  112 1   
   100   97   98 1   
   101   97   99 1   
   102   97  103 1   
   103   98  100 1   
   104   98  104 1   
   105   98  105 1   
   106   99  106 1   
   107   99  107 1   
   108   99  108 1   
   109  100  109 1   
   110  100  110 1   
   111  100  111 1   
   112  112  113 1   
   113  112  119 1   
   114  113  114 1   
   115  113  116 1   
   116  113  120 1   
   117  114  115 2   
   118  114  126 1   
   119  116  117 1   
   120  116  118 1   
   121  116  121 1   
   122  117  123 1   
   123  117  124 1   
   124  117  125 1   
   125  118  122 1   
   126  126  127 1   
   127  126  133 1   
   128  127  128 1   
   129  127  130 1   
   130  127  134 1   
   131  128  129 2   
   132  128  140 1   
   133  130  131 1   
   134  130  132 1   
   135  130  135 1   
   136  131  137 1   
   137  131  138 1   
   138  131  139 1   
   139  132  136 1   
   140  140  141 1   
   141  140  149 1   
   142  141  142 1   
   143  141  144 1   
   144  141  150 1   
   145  142  143 2   
   146  142  162 1   
   147  144  145 1   
   148  144  151 1   
   149  144  152 1   
   150  145  146 1   
   151  145  153 1   
   152  145  154 1   
   153  146  147 1   
   154  146  155 1   
   155  146  156 1   
   156  147  148 1   
   157  147  157 1   
   158  147  158 1   
   159  148  159 1   
   160  148  160 1   
   161  148  161 1   
   162  162  163 1   
   163  162  171 1   
   164  163  164 1   
   165  163  166 1   
   166  163  172 1   
   167  164  165 2   
   168  164  177 1   
   169  166  167 1   
   170  166  173 1   
   171  166  174 1   
   172  167  168 1   
   173  167  175 1   
   174  167  176 1   
   175  168  169 1   
   176  168  170 1   
   177  177  178 1   
   178  177  182 1   
   179  178  179 1   
   180  178  180 1   
   181  178  181 1   
   182  184  185 1   
   183  184  186 1   
   184  187  188 1   
   185  187  189 1   
   186  190  191 1   
   187  190  192 1   
   188  193  194 1   
   189  193  195 1   
   190  196  197 1   
   191  196  198 1   
@<TRIPOS>SUBSTRUCTURE
     1 MOL         1 TEMP              0 ****  ****    0 ROOT
