@<TRIPOS>MOLECULE
MOL
  195   189     1     0     0
SMALL
resp


@<TRIPOS>ATOM
      1 C1         -4.3690   -1.5850    2.9580 c3        1 MOL      0.011417
      2 C2         -3.5560   -2.2380    1.8070 c         1 MOL      0.405865
      3 O1         -2.6270   -1.5790    1.4700 o         1 MOL     -0.490586
      4 H1         -4.3360   -2.2300    3.8360 hc        1 MOL     -0.018850
      5 H2         -3.9370   -0.6150    3.2040 hc        1 MOL     -0.018850
      6 H3         -5.4040   -1.4530    2.6440 hc        1 MOL     -0.018850
      7 N1         -3.9750   -3.3340    1.2090 n         1 MOL     -0.244930
      8 C3         -3.3310   -3.9680    0.0590 c3        1 MOL     -0.057449
      9 C4         -1.8380   -4.2440    0.2090 c         1 MOL      0.747953
     10 O2         -0.9780   -4.1530   -0.7120 o         1 MOL     -0.551280
     11 C5         -3.8190   -3.2360   -1.2530 c3        1 MOL     -0.616950
     12 C6         -5.3330   -3.1340   -1.3280 c         1 MOL      1.012236
     13 O3         -6.0270   -3.7050   -0.4560 o         1 MOL     -0.756278
     14 O4         -5.8450   -2.7640   -2.4230 o         1 MOL     -0.756278
     15 H4         -4.9370   -3.5820    1.3600 hn        1 MOL      0.144210
     16 H5         -3.7470   -4.9730    0.0660 h1        1 MOL      0.105477
     17 H6         -3.5870   -3.9550   -2.0470 hc        1 MOL      0.175102
     18 H7         -3.3950   -2.2500   -1.4300 hc        1 MOL      0.175102
     19 N2         -1.5070   -4.7080    1.3830 n         1 MOL     -0.596175
     20 C7         -0.1280   -5.2290    1.6370 c3        1 MOL     -0.001492
     21 C8          0.1840   -6.5520    0.9420 c         1 MOL      0.565420
     22 O5         -0.6890   -7.3950    0.7760 o         1 MOL     -0.603970
     23 C9          0.3730   -5.1420    3.0860 c3        1 MOL     -0.013042
     24 C10        -0.3070   -6.0720    4.0760 c3        1 MOL      0.061673
     25 C11         0.0700   -3.6470    3.5770 c3        1 MOL     -0.374697
     26 C12         0.3000   -6.2250    5.4230 c3        1 MOL     -0.131119
     27 H8         -2.1640   -4.8680    2.1360 hn        1 MOL      0.293382
     28 H9          0.5700   -4.5120    1.2050 h1        1 MOL      0.149782
     29 H10         1.4360   -5.3190    3.0100 hc        1 MOL      0.129990
     30 H11        -0.1230   -7.0750    3.7160 hc        1 MOL     -0.001548
     31 H12        -1.3930   -5.9260    4.0670 hc        1 MOL     -0.001548
     32 H13         0.2900   -2.9130    2.8030 hc        1 MOL      0.106653
     33 H14        -0.9830   -3.5040    3.8050 hc        1 MOL      0.106653
     34 H15         0.5750   -3.3640    4.4990 hc        1 MOL      0.106653
     35 H16         0.2680   -5.3430    6.0660 hc        1 MOL      0.022350
     36 H17        -0.1590   -6.9930    6.0430 hc        1 MOL      0.022350
     37 H18         1.3560   -6.4200    5.2650 hc        1 MOL      0.022350
     38 N3          1.3990   -6.8570    0.4890 n         1 MOL     -0.529181
     39 C13         2.6690   -6.1250    0.3710 c3        1 MOL      0.383608
     40 C14         3.3160   -6.2370   -1.0270 c         1 MOL      0.394027
     41 O6          2.7750   -7.0740   -1.8290 o         1 MOL     -0.571158
     42 C15         3.6800   -6.5790    1.4960 c3        1 MOL     -0.564913
     43 C16         4.7400   -5.5370    1.8290 c         1 MOL      0.791447
     44 O7          4.7350   -4.4670    1.2260 o         1 MOL     -0.706359
     45 O8          5.5900   -5.7050    2.7100 o         1 MOL     -0.706359
     46 H19         1.4550   -7.7860    0.1010 hn        1 MOL      0.303201
     47 H20         2.5510   -5.0420    0.4710 h1        1 MOL     -0.060216
     48 H21         4.1060   -7.5340    1.2000 hc        1 MOL      0.116954
     49 H22         3.2070   -6.6470    2.4760 hc        1 MOL      0.116954
     50 N4          4.4280   -5.5240   -1.2950 n         1 MOL     -0.216373
     51 C17         5.1960   -5.4130   -2.5320 c3        1 MOL     -0.086456
     52 C18         6.0900   -4.2310   -2.6280 c         1 MOL      0.486087
     53 O9          7.3100   -4.4220   -2.4310 o         1 MOL     -0.545867
     54 H23         4.7030   -4.9320   -0.5290 hn        1 MOL      0.218309
     55 H24         4.5310   -5.3520   -3.3980 h1        1 MOL      0.057840
     56 H25         5.7760   -6.3310   -2.6380 h1        1 MOL      0.057840
     57 N5          5.5370   -3.0730   -2.8870 n         1 MOL     -0.307099
     58 C19         6.3050   -1.8820   -3.2870 c3        1 MOL     -0.051266
     59 C20         7.2640   -1.2130   -2.2290 c         1 MOL      0.418745
     60 O10         8.3190   -0.6750   -2.5790 o         1 MOL     -0.547627
     61 C21         5.4090   -0.7590   -3.8370 c3        1 MOL     -0.136916
     62 C22         4.4370   -0.2070   -2.7670 c         1 MOL      0.656020
     63 O11         3.2380   -0.5170   -2.8890 o         1 MOL     -0.661989
     64 O12         4.8600    0.5570   -1.8170 o         1 MOL     -0.661989
     65 H26         4.5350   -2.9780   -2.8270 hn        1 MOL      0.243974
     66 H27         7.0480   -2.1920   -4.0130 h1        1 MOL      0.079946
     67 H28         4.8440   -1.1930   -4.6650 hc        1 MOL      0.026764
     68 H29         6.0050    0.0450   -4.2650 hc        1 MOL      0.026764
     69 N6          6.9500   -1.3050   -0.9670 n         1 MOL     -0.062475
     70 C23         7.8720   -0.9100    0.1960 c3        1 MOL     -0.284000
     71 C24         8.1760    0.6180    0.2260 c         1 MOL      0.536265
     72 O13         8.9640    1.0810    1.0870 o         1 MOL     -0.596890
     73 H30         6.0250   -1.6710   -0.7720 hn        1 MOL      0.210020
     74 H31         8.8690   -1.3650    0.1690 h1        1 MOL      0.133577
     75 H32         7.3920   -1.1410    1.1530 h1        1 MOL      0.133577
     76 N7          7.5060    1.4280   -0.6100 n         1 MOL      0.057661
     77 C25         7.6090    2.8400   -0.6190 c3        1 MOL      0.027647
     78 C26         7.1990    3.6190    0.6840 c         1 MOL      0.437467
     79 O14         7.3960    4.7650    0.8970 o         1 MOL     -0.498102
     80 C27         8.9470    3.2400   -1.1730 c3        1 MOL     -0.089560
     81 C28         9.1820    2.7910   -2.6040 c3        1 MOL     -0.015142
     82 C29        10.3570    3.4080   -3.2560 c         1 MOL      0.628550
     83 N8         10.1950    4.3740   -4.0490 n         1 MOL     -0.745008
     84 O15        11.5050    3.0060   -3.1250 o         1 MOL     -0.603224
     85 H33         6.7980    1.0180   -1.1990 hn        1 MOL      0.004368
     86 H34         6.8600    3.2640   -1.2800 h1        1 MOL      0.077453
     87 H35         9.7460    2.8960   -0.5040 hc        1 MOL      0.023710
     88 H36         8.9030    4.3220   -1.2970 hc        1 MOL      0.023710
     89 H37         8.3370    3.0510   -3.2450 hc        1 MOL      0.010281
     90 H38         9.2540    1.6970   -2.6250 hc        1 MOL      0.010281
     91 H39         9.3380    4.8780   -4.1890 hn        1 MOL      0.332302
     92 H40        10.9950    4.7950   -4.5060 hn        1 MOL      0.332302
     93 N9          6.5240    2.8380    1.6060 n         1 MOL     -0.348779
     94 C30         5.8690    3.3330    2.8370 c3        1 MOL     -0.080967
     95 C31         4.3450    3.3460    2.9190 c         1 MOL      0.545557
     96 O16         3.8350    3.8860    3.8390 o         1 MOL     -0.550387
     97 C32         6.4410    2.6010    4.0400 c3        1 MOL      0.461947
     98 C33         6.1290    1.0870    4.0590 c3        1 MOL     -0.433272
     99 C34         7.9850    2.7250    4.1740 c3        1 MOL     -0.433272
    100 H41         6.3100    1.8990    1.3070 hn        1 MOL      0.213696
    101 H42         6.1070    4.3890    3.0080 h1        1 MOL      0.077345
    102 H43         6.0490    3.0650    4.9450 hc        1 MOL     -0.082505
    103 H44         6.7330    0.6290    4.8400 hc        1 MOL      0.096663
    104 H45         5.0610    0.9560    4.2590 hc        1 MOL      0.096663
    105 H46         6.3420    0.6860    3.0680 hc        1 MOL      0.096663
    106 H47         8.3010    2.3620    5.1540 hc        1 MOL      0.096663
    107 H48         8.4480    2.0470    3.4470 hc        1 MOL      0.096663
    108 H49         8.2480    3.7670    4.0270 hc        1 MOL      0.096663
    109 N10         3.6220    2.5460    2.0440 n         1 MOL     -0.355338
    110 C35         2.1730    2.3160    2.0770 c3        1 MOL      0.143408
    111 C36         1.4810    2.9050    0.8260 c         1 MOL      0.477076
    112 O17         2.1160    3.1480   -0.2040 o         1 MOL     -0.503257
    113 C37         1.9950    0.8110    2.1190 c3        1 MOL     -0.122696
    114 C38         0.5920    0.3910    2.4570 c         1 MOL      0.505193
    115 N11         0.0110   -0.4660    1.6480 n         1 MOL     -0.556159
    116 O18        -0.0130    0.8230    3.4290 o         1 MOL     -0.576450
    117 H50         4.1840    2.1290    1.3190 hn        1 MOL      0.165703
    118 H51         1.9250    2.8350    3.0020 h1        1 MOL      0.052322
    119 H52         2.6870    0.3900    2.8560 hc        1 MOL      0.058430
    120 H53         2.2240    0.2300    1.2240 hc        1 MOL      0.058430
    121 H54         0.4860   -0.9330    0.8900 hn        1 MOL      0.307541
    122 H55        -0.9540   -0.6680    1.8620 hn        1 MOL      0.307541
    123 N12         0.1680    3.1420    0.9170 n         1 MOL     -0.479135
    124 C39        -0.7090    3.4460   -0.1290 c3        1 MOL      0.183722
    125 C40        -2.0080    4.0850    0.4340 c         1 MOL      0.607976
    126 O19        -2.4770    3.8990    1.5470 o         1 MOL     -0.607642
    127 C41        -1.0450    2.0940   -0.8960 c3        1 MOL     -0.339045
    128 C42        -2.1500    2.0160   -1.8790 ca        1 MOL      0.018946
    129 C43        -3.1120    0.9630   -1.7690 ca        1 MOL     -0.017298
    130 C44        -2.2000    2.8200   -2.9880 ca        1 MOL     -0.017298
    131 C45        -4.0360    0.7240   -2.8190 ca        1 MOL     -0.376602
    132 C46        -3.0670    2.4870   -4.0230 ca        1 MOL     -0.376602
    133 C47        -4.0460    1.5360   -3.9980 ca        1 MOL      0.456130
    134 O20        -4.9900    1.3830   -4.9700 oh        1 MOL     -0.603098
    135 H56        -0.2050    2.8310    1.8020 hn        1 MOL      0.263071
    136 H57        -0.3540    4.2110   -0.8120 h1        1 MOL      0.045382
    137 H58        -1.4200    1.4140   -0.1360 hc        1 MOL      0.151750
    138 H59        -0.1800    1.5900   -1.3230 hc        1 MOL      0.151750
    139 H60        -3.0270    0.2740   -0.9410 ha        1 MOL      0.096627
    140 H61        -1.5510    3.6700   -3.1250 ha        1 MOL      0.096627
    141 H62        -4.8010   -0.0410   -2.7850 ha        1 MOL      0.154673
    142 H63        -3.1110    3.1670   -4.8660 ha        1 MOL      0.154673
    143 H64        -5.5670    0.6440   -4.8260 ho        1 MOL      0.448040
    144 N13        -2.6850    4.8600   -0.4300 n         1 MOL     -0.535363
    145 C48        -3.9000    5.6460   -0.2170 c3        1 MOL      0.295827
    146 C49        -5.0370    4.9250   -1.0110 c         1 MOL      0.436889
    147 O21        -5.2800    5.2440   -2.1680 o         1 MOL     -0.563150
    148 C50        -3.6840    7.0770   -0.7100 c3        1 MOL      0.006252
    149 C51        -2.9200    7.9390    0.2720 c3        1 MOL     -0.110015
    150 C52        -3.0320    9.4360   -0.0940 c         1 MOL      0.663767
    151 O22        -3.2150    9.7860   -1.2770 o         1 MOL     -0.679921
    152 O23        -3.0150   10.2050    0.9170 o         1 MOL     -0.679921
    153 H65        -2.3440    4.8270   -1.3780 hn        1 MOL      0.279533
    154 H66        -4.1420    5.6210    0.8440 h1        1 MOL      0.009998
    155 H67        -4.7030    7.4630   -0.7690 hc        1 MOL      0.005677
    156 H68        -3.2550    7.0410   -1.7150 hc        1 MOL      0.005677
    157 H69        -1.9020    7.5500    0.3160 hc        1 MOL     -0.001079
    158 H70        -3.2920    7.7240    1.2750 hc        1 MOL     -0.001079
    159 N14        -5.8050    3.9950   -0.4990 n         1 MOL     -0.379045
    160 C53        -5.7920    3.4690    0.8510 c3        1 MOL     -0.218878
    161 C54        -6.3050    4.3990    1.9850 c         1 MOL      0.585384
    162 O24        -7.3090    5.1090    1.8500 o         1 MOL     -0.540924
    163 C55        -6.5360    2.1190    0.9200 c3        1 MOL      0.080717
    164 C56        -5.8530    1.0140    0.1200 c3        1 MOL     -0.046450
    165 C57        -6.7730   -0.2070   -0.1650 c         1 MOL      0.792639
    166 O25        -7.2670   -0.2710   -1.3220 o         1 MOL     -0.732740
    167 O26        -7.2050   -1.0940    0.6370 o         1 MOL     -0.732740
    168 H71        -6.4390    3.6400   -1.2070 hn        1 MOL      0.319011
    169 H72        -4.7540    3.2380    1.0710 h1        1 MOL      0.171094
    170 H73        -7.5400    2.2610    0.5200 hc        1 MOL     -0.016984
    171 H74        -6.6100    1.7590    1.9440 hc        1 MOL     -0.016984
    172 H75        -4.9360    0.6880    0.6240 hc        1 MOL     -0.005238
    173 H76        -5.4710    1.4020   -0.8180 hc        1 MOL     -0.005238
    174 N15        -5.7120    4.3050    3.1980 n         1 MOL     -0.376131
    175 C58        -6.3090    5.1100    4.3730 c3        1 MOL     -0.206645
    176 H77        -6.3560    4.4760    5.2580 h1        1 MOL      0.103655
    177 H78        -5.6790    5.9740    4.5780 h1        1 MOL      0.103655
    178 H79        -7.3130    5.4440    4.1110 h1        1 MOL      0.103655
    179 H80        -5.0870    3.5230    3.3350 hn        1 MOL      0.308336
    180 Ca1        -8.3710   -2.7580   -1.0460 Ca        1 MOL      1.534381
    181 O27        -8.3800   -5.2360   -2.0440 oh        1 MOL     -0.724294
    182 H81        -7.6640   -5.8770   -2.0600 ho        1 MOL      0.351991
    183 H82        -9.1760   -5.7600   -2.0440 ho        1 MOL      0.351991
    184 O28        -8.8640   -2.6370   -3.6720 oh        1 MOL     -0.724294
    185 H83        -8.1280   -2.9980   -4.1760 ho        1 MOL      0.351991
    186 H84        -9.6320   -2.8400   -4.1910 ho        1 MOL      0.351991
    187 O29       -10.2210   -0.9830   -1.7820 oh        1 MOL     -0.724294
    188 H85       -10.3860   -0.2090   -1.2440 ho        1 MOL      0.351991
    189 H86       -10.8620   -0.9050   -2.4940 ho        1 MOL      0.351991
    190 O30       -10.8120   -4.1170   -0.8120 oh        1 MOL     -0.724294
    191 H87       -11.1690   -4.9030   -1.2190 ho        1 MOL      0.351991
    192 H88       -11.4110   -3.9240   -0.0870 ho        1 MOL      0.351991
    193 O31        -9.9640   -1.2630    1.1350 oh        1 MOL     -0.724294
    194 H89       -10.2640   -1.9140    1.7670 ho        1 MOL      0.351991
    195 H90        -9.0890   -1.0210    1.4270 ho        1 MOL      0.351991
@<TRIPOS>BOND
     1    1    2 1   
     2    1    4 1   
     3    1    5 1   
     4    1    6 1   
     5    2    3 2   
     6    2    7 1   
     7    7    8 1   
     8    7   15 1   
     9    8    9 1   
    10    8   11 1   
    11    8   16 1   
    12    9   10 2   
    13    9   19 1   
    14   11   12 1   
    15   11   17 1   
    16   11   18 1   
    17   12   13 1   
    18   12   14 1   
    19   19   20 1   
    20   19   27 1   
    21   20   21 1   
    22   20   23 1   
    23   20   28 1   
    24   21   22 2   
    25   21   38 1   
    26   23   24 1   
    27   23   25 1   
    28   23   29 1   
    29   24   26 1   
    30   24   30 1   
    31   24   31 1   
    32   25   32 1   
    33   25   33 1   
    34   25   34 1   
    35   26   35 1   
    36   26   36 1   
    37   26   37 1   
    38   38   39 1   
    39   38   46 1   
    40   39   40 1   
    41   39   42 1   
    42   39   47 1   
    43   40   41 2   
    44   40   50 1   
    45   42   43 1   
    46   42   48 1   
    47   42   49 1   
    48   43   44 1   
    49   43   45 1   
    50   50   51 1   
    51   50   54 1   
    52   51   52 1   
    53   51   55 1   
    54   51   56 1   
    55   52   53 2   
    56   52   57 1   
    57   57   58 1   
    58   57   65 1   
    59   58   59 1   
    60   58   61 1   
    61   58   66 1   
    62   59   60 2   
    63   59   69 1   
    64   61   62 1   
    65   61   67 1   
    66   61   68 1   
    67   62   63 1   
    68   62   64 1   
    69   69   70 1   
    70   69   73 1   
    71   70   71 1   
    72   70   74 1   
    73   70   75 1   
    74   71   72 2   
    75   71   76 1   
    76   76   77 1   
    77   76   85 1   
    78   77   78 1   
    79   77   80 1   
    80   77   86 1   
    81   78   79 2   
    82   78   93 1   
    83   80   81 1   
    84   80   87 1   
    85   80   88 1   
    86   81   82 1   
    87   81   89 1   
    88   81   90 1   
    89   82   83 1   
    90   82   84 2   
    91   83   91 1   
    92   83   92 1   
    93   93   94 1   
    94   93  100 1   
    95   94   95 1   
    96   94   97 1   
    97   94  101 1   
    98   95   96 2   
    99   95  109 1   
   100   97   98 1   
   101   97   99 1   
   102   97  102 1   
   103   98  103 1   
   104   98  104 1   
   105   98  105 1   
   106   99  106 1   
   107   99  107 1   
   108   99  108 1   
   109  109  110 1   
   110  109  117 1   
   111  110  111 1   
   112  110  113 1   
   113  110  118 1   
   114  111  112 2   
   115  111  123 1   
   116  113  114 1   
   117  113  119 1   
   118  113  120 1   
   119  114  115 1   
   120  114  116 2   
   121  115  121 1   
   122  115  122 1   
   123  123  124 1   
   124  123  135 1   
   125  124  125 1   
   126  124  127 1   
   127  124  136 1   
   128  125  126 2   
   129  125  144 1   
   130  127  128 1   
   131  127  137 1   
   132  127  138 1   
   133  128  129 ar  
   134  128  130 ar  
   135  129  131 ar  
   136  129  139 1   
   137  130  132 ar  
   138  130  140 1   
   139  131  133 ar  
   140  131  141 1   
   141  132  133 ar  
   142  132  142 1   
   143  133  134 1   
   144  134  143 1   
   145  144  145 1   
   146  144  153 1   
   147  145  146 1   
   148  145  148 1   
   149  145  154 1   
   150  146  147 2   
   151  146  159 1   
   152  148  149 1   
   153  148  155 1   
   154  148  156 1   
   155  149  150 1   
   156  149  157 1   
   157  149  158 1   
   158  150  151 1   
   159  150  152 1   
   160  159  160 1   
   161  159  168 1   
   162  160  161 1   
   163  160  163 1   
   164  160  169 1   
   165  161  162 2   
   166  161  174 1   
   167  163  164 1   
   168  163  170 1   
   169  163  171 1   
   170  164  165 1   
   171  164  172 1   
   172  164  173 1   
   173  165  166 1   
   174  165  167 1   
   175  174  175 1   
   176  174  179 1   
   177  175  176 1   
   178  175  177 1   
   179  175  178 1   
   180  181  182 1   
   181  181  183 1   
   182  184  185 1   
   183  184  186 1   
   184  187  188 1   
   185  187  189 1   
   186  190  191 1   
   187  190  192 1   
   188  193  194 1   
   189  193  195 1   
@<TRIPOS>SUBSTRUCTURE
     1 MOL         1 TEMP              0 ****  ****    0 ROOT
