@<TRIPOS>MOLECULE
MOL
  188   182     1     0     0
SMALL
resp


@<TRIPOS>ATOM
      1 C1          4.6080    1.6600    2.7280 c3        1 MOL     -0.341173
      2 C2          5.3860    1.5020    1.4410 c         1 MOL      0.719331
      3 O1          4.9030    0.8210    0.5350 o         1 MOL     -0.586666
      4 H1          3.6410    1.1640    2.6300 hc        1 MOL      0.078224
      5 H2          5.1660    1.2080    3.5480 hc        1 MOL      0.078224
      6 H3          4.4530    2.7190    2.9320 hc        1 MOL      0.078224
      7 N1          6.6590    1.8610    1.3270 n         1 MOL     -0.450849
      8 C3          7.6620    1.4650    0.2870 c3        1 MOL      0.018077
      9 C4          7.8040   -0.0920    0.0830 c         1 MOL      0.521416
     10 O2          8.1830   -0.5670   -0.9860 o         1 MOL     -0.496431
     11 C5          7.3660    2.2300   -0.9740 c3        1 MOL     -0.215993
     12 C6          6.9220    3.6720   -0.9100 c         1 MOL      0.669987
     13 O3          6.1900    4.1490   -1.8040 o         1 MOL     -0.641992
     14 O4          7.0220    4.3210    0.1770 o         1 MOL     -0.641992
     15 H4          7.1050    2.3410    2.1010 hn        1 MOL      0.250977
     16 H5          8.6580    1.7100    0.6670 h1        1 MOL      0.068303
     17 H6          6.5960    1.6580   -1.5000 hc        1 MOL      0.071619
     18 H7          8.2460    2.2030   -1.6190 hc        1 MOL      0.071619
     19 N2          7.4960   -0.8970    1.1240 n         1 MOL     -0.517994
     20 C7          7.5840   -2.3680    1.1070 c3        1 MOL      0.008492
     21 C8          6.2970   -2.9760    0.6220 c         1 MOL      0.558876
     22 O5          6.1630   -4.1850    0.6850 o         1 MOL     -0.579554
     23 C9          8.0130   -2.9360    2.4600 c3        1 MOL     -0.155305
     24 C10         9.4770   -2.4710    2.7590 c3        1 MOL      0.268915
     25 C11         9.9010   -2.9600    4.1820 c3        1 MOL     -0.032687
     26 C12        11.4460   -2.7920    4.3870 c3        1 MOL     -0.197060
     27 N3         11.7570   -1.3350    4.5680 n4        1 MOL     -0.199548
     28 H8          7.2690   -0.4550    2.0010 hn        1 MOL      0.272945
     29 H9          8.2960   -2.7550    0.3800 h1        1 MOL      0.108927
     30 H10         8.0080   -4.0250    2.5440 hc        1 MOL      0.059930
     31 H11         7.3610   -2.5980    3.2710 hc        1 MOL      0.059930
     32 H12         9.5340   -1.3790    2.7870 hc        1 MOL     -0.059926
     33 H13        10.1990   -2.8350    2.0290 hc        1 MOL     -0.059926
     34 H14         9.5950   -3.9930    4.2910 hc        1 MOL      0.032877
     35 H15         9.3290   -2.4300    4.9500 hc        1 MOL      0.032877
     36 H16        11.8640   -3.1600    3.4490 hx        1 MOL      0.153537
     37 H17        11.7180   -3.3600    5.2810 hx        1 MOL      0.153537
     38 H18        12.6240   -1.2770    5.0860 hn        1 MOL      0.243252
     39 H19        11.8620   -0.8530    3.6850 hn        1 MOL      0.243252
     40 H20        10.9740   -0.8900    5.0180 hn        1 MOL      0.243252
     41 N4          5.3360   -2.2400    0.0340 n         1 MOL     -0.304982
     42 C13         4.0860   -2.7380   -0.5450 c3        1 MOL     -0.020391
     43 C14         3.9390   -2.2030   -1.9950 c         1 MOL      0.436744
     44 O6          4.1610   -1.0320   -2.2890 o         1 MOL     -0.374363
     45 C15         2.9590   -2.2520    0.3900 c3        1 MOL     -0.282868
     46 C16         1.5510   -2.5190   -0.0950 c         1 MOL      0.594406
     47 O7          0.6370   -2.1090    0.6460 o         1 MOL     -0.657110
     48 O8          1.3000   -3.1570   -1.1770 o         1 MOL     -0.657110
     49 H21         5.4860   -1.2340    0.0600 hn        1 MOL      0.219626
     50 H22         4.1350   -3.8260   -0.5250 h1        1 MOL      0.090288
     51 H23         3.0040   -1.1630    0.3970 hc        1 MOL      0.122248
     52 H24         3.1250   -2.7150    1.3580 hc        1 MOL      0.122248
     53 N5          3.5130   -3.0510   -2.9910 n         1 MOL     -0.352025
     54 C17         3.4910   -2.7340   -4.4700 c3        1 MOL     -0.123523
     55 C18         2.5420   -1.6360   -4.9290 c         1 MOL      0.375845
     56 O9          2.7590   -1.1540   -6.0820 o         1 MOL     -0.536765
     57 H25         3.2100   -3.9710   -2.7160 hn        1 MOL      0.233328
     58 H26         3.1930   -3.6710   -4.9390 h1        1 MOL      0.116521
     59 H27         4.5310   -2.5850   -4.7770 h1        1 MOL      0.116521
     60 N6          1.6370   -1.1810   -4.0990 n         1 MOL     -0.184063
     61 C19         1.0200    0.1250   -4.3840 c3        1 MOL     -0.034282
     62 C20         1.6290    1.3420   -3.7370 c         1 MOL      0.613221
     63 O10         1.1690    2.4760   -4.0230 o         1 MOL     -0.582128
     64 C21        -0.4610   -0.0830   -4.0870 c3        1 MOL     -0.324315
     65 C22        -0.6960   -0.0470   -2.5460 c         1 MOL      0.533100
     66 N7         -1.1580    1.0500   -1.9840 n         1 MOL     -0.710846
     67 O11        -0.3170   -1.0100   -1.9110 o         1 MOL     -0.481916
     68 H28         1.5330   -1.6300   -3.2000 hn        1 MOL      0.249360
     69 H29         1.1140    0.3990   -5.4330 h1        1 MOL      0.119745
     70 H30        -0.8070   -1.0200   -4.5280 hc        1 MOL      0.104310
     71 H31        -0.9800    0.8040   -4.4390 hc        1 MOL      0.104310
     72 H32        -1.2850    1.8710   -2.5640 hn        1 MOL      0.365138
     73 H33        -1.3570    1.0360   -0.9930 hn        1 MOL      0.365138
     74 N8          2.6690    1.2420   -2.8530 n         1 MOL     -0.442993
     75 C23         3.4120    2.3820   -2.3930 c3        1 MOL      0.026055
     76 C24         2.6380    3.4540   -1.6490 c         1 MOL      0.736017
     77 O12         2.6080    4.5730   -2.1610 o         1 MOL     -0.550495
     78 H34         3.0420    0.3260   -2.6590 hn        1 MOL      0.253597
     79 H35         3.7980    2.9130   -3.2600 h1        1 MOL      0.071530
     80 H36         4.3200    2.0580   -1.8910 h1        1 MOL      0.071530
     81 N9          2.0210    3.1610   -0.5100 n         1 MOL     -0.657257
     82 C25         0.8920    3.9210    0.0090 c3        1 MOL      0.313929
     83 C26        -0.0990    2.9700    0.7250 c         1 MOL      0.433643
     84 O13         0.2710    1.9010    1.2260 o         1 MOL     -0.458970
     85 C27         1.3320    5.0010    1.0150 c3        1 MOL     -0.191278
     86 C28         0.1690    5.9240    1.4590 ca        1 MOL      0.007234
     87 C29        -0.6430    6.5170    0.4990 ca        1 MOL     -0.114556
     88 C30        -0.1500    6.2210    2.8450 ca        1 MOL     -0.114556
     89 C31        -1.7080    7.4100    0.8010 ca        1 MOL     -0.310714
     90 C32        -1.1720    7.1410    3.1850 ca        1 MOL     -0.310714
     91 C33        -1.9810    7.7810    2.1840 ca        1 MOL      0.396377
     92 O14        -2.9040    8.7540    2.5190 oh        1 MOL     -0.520050
     93 H37         2.1490    2.2210   -0.1630 hn        1 MOL      0.317548
     94 H38         0.3230    4.4620   -0.7500 h1        1 MOL     -0.009911
     95 H39         2.1760    5.5440    0.5970 hc        1 MOL      0.107617
     96 H40         1.7130    4.5510    1.9330 hc        1 MOL      0.107617
     97 H41        -0.3550    6.4270   -0.5420 ha        1 MOL      0.136532
     98 H42         0.4370    5.6990    3.5910 ha        1 MOL      0.136532
     99 H43        -2.1740    7.9120   -0.0370 ha        1 MOL      0.153848
    100 H44        -1.4540    7.3070    4.2140 ha        1 MOL      0.153848
    101 H45        -2.6820    9.1670    3.3530 ho        1 MOL      0.382768
    102 N10        -1.4330    3.2990    0.6670 n         1 MOL     -0.486169
    103 C34        -2.4800    2.4160    1.1570 c3        1 MOL     -0.138458
    104 C35        -3.3080    1.8520   -0.0410 c         1 MOL      0.347176
    105 O15        -3.4290    0.6390   -0.1410 o         1 MOL     -0.446554
    106 C36        -3.3230    3.1290    2.1880 c3        1 MOL      0.291426
    107 C37        -2.4940    3.4330    3.5000 c3        1 MOL     -0.023539
    108 C38        -4.6200    2.3340    2.5160 c3        1 MOL     -0.431342
    109 C39        -3.0830    4.3720    4.5350 c3        1 MOL     -0.399115
    110 H46        -1.6400    4.1830    0.2200 hn        1 MOL      0.269750
    111 H47        -2.0640    1.5770    1.7000 h1        1 MOL      0.165854
    112 H48        -3.6140    4.0740    1.7220 hc        1 MOL     -0.031096
    113 H49        -1.5660    3.9080    3.1890 hc        1 MOL      0.056608
    114 H50        -2.3800    2.4650    3.9950 hc        1 MOL      0.056608
    115 H51        -4.3950    1.4040    3.0360 hc        1 MOL      0.100304
    116 H52        -5.2500    2.9540    3.1500 hc        1 MOL      0.100304
    117 H53        -5.2040    2.0590    1.6370 hc        1 MOL      0.100304
    118 H54        -3.5710    5.1600    3.9580 hc        1 MOL      0.102876
    119 H55        -3.8660    3.8120    5.0510 hc        1 MOL      0.102876
    120 H56        -2.3510    4.6560    5.2890 hc        1 MOL      0.102876
    121 N11        -3.8180    2.5810   -1.0390 n         1 MOL     -0.371327
    122 C40        -4.4470    1.9410   -2.1820 c3        1 MOL     -0.055812
    123 C41        -5.9350    1.7210   -1.9590 c         1 MOL      0.324446
    124 O16        -6.5870    1.0060   -2.7600 o         1 MOL     -0.489756
    125 C42        -4.1870    2.7660   -3.4910 c3        1 MOL      0.127503
    126 O17        -2.8360    3.1530   -3.6290 oh        1 MOL     -0.567369
    127 H57        -3.7720    3.5790   -0.9520 hn        1 MOL      0.309569
    128 H58        -3.9450    0.9860   -2.3050 h1        1 MOL      0.137316
    129 H59        -4.8620    3.6150   -3.4180 h1        1 MOL      0.045158
    130 H60        -4.4610    2.1930   -4.3870 h1        1 MOL      0.045158
    131 H61        -2.8930    3.7660   -4.3680 ho        1 MOL      0.413708
    132 N12        -6.5040    2.1700   -0.7880 n         1 MOL     -0.075815
    133 C43        -7.8530    1.8990   -0.4030 c3        1 MOL      0.126901
    134 C44        -8.2700    0.5080   -0.0160 c         1 MOL      0.490116
    135 O18        -9.4480    0.1620    0.0470 o         1 MOL     -0.518526
    136 C45        -8.7660    2.5120   -1.4490 c3        1 MOL     -0.545305
    137 H62        -6.0130    2.8900   -0.2830 hn        1 MOL      0.167440
    138 H63        -8.0710    2.4650    0.5020 h1        1 MOL      0.049938
    139 H64        -9.0880    1.6920   -2.1060 hc        1 MOL      0.159029
    140 H65        -9.7230    2.8460   -1.0590 hc        1 MOL      0.159029
    141 H66        -8.2560    3.3690   -1.8790 hc        1 MOL      0.159029
    142 N13        -7.2710   -0.3730    0.1170 n         1 MOL     -0.491935
    143 C46        -7.4820   -1.7870    0.3360 c3        1 MOL      0.316859
    144 C47        -6.4400   -2.3830    1.3730 c         1 MOL      0.337840
    145 O19        -5.3460   -1.8520    1.6270 o         1 MOL     -0.415062
    146 C48        -7.4040   -2.4250   -1.0670 c3        1 MOL     -0.397189
    147 H67        -6.3170   -0.1280   -0.1130 hn        1 MOL      0.225394
    148 H68        -8.4440   -1.9730    0.8010 h1        1 MOL      0.010540
    149 H69        -7.3150   -3.5020   -0.9390 hc        1 MOL      0.126593
    150 H70        -8.2770   -2.0820   -1.6200 hc        1 MOL      0.126593
    151 H71        -6.5420   -2.1860   -1.6980 hc        1 MOL      0.126593
    152 N14        -6.8570   -3.5580    1.9210 n         1 MOL     -0.413111
    153 C49        -6.0650   -4.4810    2.7680 c3        1 MOL     -0.058990
    154 C50        -5.8430   -3.9050    4.1390 c         1 MOL      0.497299
    155 O20        -4.7840   -4.1470    4.6730 o         1 MOL     -0.497536
    156 C51        -4.7520   -4.9590    2.0840 c3        1 MOL      0.260248
    157 C52        -5.0100   -5.6440    0.7140 c3        1 MOL     -0.089615
    158 C53        -3.6860   -5.9960   -0.0140 c         1 MOL      0.702375
    159 O21        -2.9980   -6.9980    0.2770 o         1 MOL     -0.726259
    160 O22        -3.3660   -5.0890   -0.8130 o         1 MOL     -0.726259
    161 H72        -7.7290   -3.9800    1.6170 hn        1 MOL      0.290833
    162 H73        -6.6330   -5.3680    3.0220 h1        1 MOL      0.063104
    163 H74        -4.1840   -5.5240    2.8230 hc        1 MOL     -0.031658
    164 H75        -4.1550   -4.0810    1.8110 hc        1 MOL     -0.031658
    165 H76        -5.6570   -5.0040    0.1120 hc        1 MOL     -0.040720
    166 H77        -5.4920   -6.5960    0.9060 hc        1 MOL     -0.040720
    167 N15        -6.7700   -3.1170    4.6710 n         1 MOL     -0.368766
    168 C54        -6.5880   -2.2140    5.8530 c3        1 MOL     -0.076117
    169 H78        -6.2780   -1.2270    5.5110 h1        1 MOL      0.076009
    170 H79        -7.5300   -2.1310    6.3960 h1        1 MOL      0.076009
    171 H80        -5.8240   -2.6260    6.5120 h1        1 MOL      0.076009
    172 H81        -7.6980   -3.0140    4.2940 hn        1 MOL      0.250133
    173 Ca1        -1.3240   -3.3400   -1.0250 Ca        1 MOL      1.768771
    174 O23        -0.5730   -5.9270   -1.7030 oh        1 MOL     -0.876477
    175 H82        -0.3820   -6.3040   -0.8490 ho        1 MOL      0.425602
    176 H83        -1.0790   -6.6020   -2.1520 ho        1 MOL      0.425602
    177 O24        -3.2500   -1.5560   -1.9570 oh        1 MOL     -0.876477
    178 H84        -3.5500   -0.8260   -1.4060 ho        1 MOL      0.425602
    179 H85        -3.6640   -1.4080   -2.8040 ho        1 MOL      0.425602
    180 O25        -2.6160   -2.2480    1.0460 oh        1 MOL     -0.876477
    181 H86        -3.5280   -2.5540    1.0750 ho        1 MOL      0.425602
    182 H87        -2.5270   -1.6730    1.8030 ho        1 MOL      0.425602
    183 O26        -1.2050   -3.6010   -3.6660 oh        1 MOL     -0.876477
    184 H88        -0.4990   -3.7860   -4.2930 ho        1 MOL      0.425602
    185 H89        -2.0090   -3.6830   -4.1740 ho        1 MOL      0.425602
    186 O27        -0.6190   -4.9540    1.0930 oh        1 MOL     -0.876477
    187 H90         0.2580   -4.8560    1.4440 ho        1 MOL      0.425602
    188 H91        -0.8930   -5.8310    1.3750 ho        1 MOL      0.425602
@<TRIPOS>BOND
     1    1    2 1   
     2    1    4 1   
     3    1    5 1   
     4    1    6 1   
     5    2    3 2   
     6    2    7 1   
     7    7    8 1   
     8    7   15 1   
     9    8    9 1   
    10    8   11 1   
    11    8   16 1   
    12    9   10 2   
    13    9   19 1   
    14   11   12 1   
    15   11   17 1   
    16   11   18 1   
    17   12   13 1   
    18   12   14 1   
    19   19   20 1   
    20   19   28 1   
    21   20   21 1   
    22   20   23 1   
    23   20   29 1   
    24   21   22 2   
    25   21   41 1   
    26   23   24 1   
    27   23   30 1   
    28   23   31 1   
    29   24   25 1   
    30   24   32 1   
    31   24   33 1   
    32   25   26 1   
    33   25   34 1   
    34   25   35 1   
    35   26   27 1   
    36   26   36 1   
    37   26   37 1   
    38   27   38 1   
    39   27   39 1   
    40   27   40 1   
    41   41   42 1   
    42   41   49 1   
    43   42   43 1   
    44   42   45 1   
    45   42   50 1   
    46   43   44 2   
    47   43   53 1   
    48   45   46 1   
    49   45   51 1   
    50   45   52 1   
    51   46   47 1   
    52   46   48 1   
    53   53   54 1   
    54   53   57 1   
    55   54   55 1   
    56   54   58 1   
    57   54   59 1   
    58   55   56 2   
    59   55   60 1   
    60   60   61 1   
    61   60   68 1   
    62   61   62 1   
    63   61   64 1   
    64   61   69 1   
    65   62   63 2   
    66   62   74 1   
    67   64   65 1   
    68   64   70 1   
    69   64   71 1   
    70   65   66 1   
    71   65   67 2   
    72   66   72 1   
    73   66   73 1   
    74   74   75 1   
    75   74   78 1   
    76   75   76 1   
    77   75   79 1   
    78   75   80 1   
    79   76   77 2   
    80   76   81 1   
    81   81   82 1   
    82   81   93 1   
    83   82   83 1   
    84   82   85 1   
    85   82   94 1   
    86   83   84 2   
    87   83  102 1   
    88   85   86 1   
    89   85   95 1   
    90   85   96 1   
    91   86   87 ar  
    92   86   88 ar  
    93   87   89 ar  
    94   87   97 1   
    95   88   90 ar  
    96   88   98 1   
    97   89   91 ar  
    98   89   99 1   
    99   90   91 ar  
   100   90  100 1   
   101   91   92 1   
   102   92  101 1   
   103  102  103 1   
   104  102  110 1   
   105  103  104 1   
   106  103  106 1   
   107  103  111 1   
   108  104  105 2   
   109  104  121 1   
   110  106  107 1   
   111  106  108 1   
   112  106  112 1   
   113  107  109 1   
   114  107  113 1   
   115  107  114 1   
   116  108  115 1   
   117  108  116 1   
   118  108  117 1   
   119  109  118 1   
   120  109  119 1   
   121  109  120 1   
   122  121  122 1   
   123  121  127 1   
   124  122  123 1   
   125  122  125 1   
   126  122  128 1   
   127  123  124 2   
   128  123  132 1   
   129  125  126 1   
   130  125  129 1   
   131  125  130 1   
   132  126  131 1   
   133  132  133 1   
   134  132  137 1   
   135  133  134 1   
   136  133  136 1   
   137  133  138 1   
   138  134  135 2   
   139  134  142 1   
   140  136  139 1   
   141  136  140 1   
   142  136  141 1   
   143  142  143 1   
   144  142  147 1   
   145  143  144 1   
   146  143  146 1   
   147  143  148 1   
   148  144  145 2   
   149  144  152 1   
   150  146  149 1   
   151  146  150 1   
   152  146  151 1   
   153  152  153 1   
   154  152  161 1   
   155  153  154 1   
   156  153  156 1   
   157  153  162 1   
   158  154  155 2   
   159  154  167 1   
   160  156  157 1   
   161  156  163 1   
   162  156  164 1   
   163  157  158 1   
   164  157  165 1   
   165  157  166 1   
   166  158  159 1   
   167  158  160 1   
   168  167  168 1   
   169  167  172 1   
   170  168  169 1   
   171  168  170 1   
   172  168  171 1   
   173  174  175 1   
   174  174  176 1   
   175  177  178 1   
   176  177  179 1   
   177  180  181 1   
   178  180  182 1   
   179  183  184 1   
   180  183  185 1   
   181  186  187 1   
   182  186  188 1   
@<TRIPOS>SUBSTRUCTURE
     1 MOL         1 TEMP              0 ****  ****    0 ROOT
