@<TRIPOS>MOLECULE
MOL
  184   179     1     0     0
SMALL
resp


@<TRIPOS>ATOM
      1 C1          2.0440   -0.6610    5.3790 c3        1 MOL     -0.245879
      2 C2          3.2320   -0.3660    4.4790 c         1 MOL      0.738512
      3 O1          3.4510    0.7920    3.9980 o         1 MOL     -0.614265
      4 H1          1.9340    0.1420    6.1080 hc        1 MOL      0.062538
      5 H2          1.1390   -0.7310    4.7760 hc        1 MOL      0.062538
      6 H3          2.2080   -1.6030    5.9010 hc        1 MOL      0.062538
      7 N1          3.9490   -1.4770    4.0910 n         1 MOL     -0.777413
      8 C3          5.2160   -1.3500    3.3760 c3        1 MOL      0.356697
      9 C4          5.4840   -2.4750    2.3330 c         1 MOL      0.581752
     10 O2          6.3860   -2.2900    1.5920 o         1 MOL     -0.551120
     11 C5          6.4100   -1.0860    4.4040 c3        1 MOL     -0.283802
     12 C6          6.7200   -2.2160    5.3590 c         1 MOL      0.800332
     13 O3          7.6730   -2.1840    6.1420 o         1 MOL     -0.736782
     14 O4          5.9820   -3.2200    5.3920 o         1 MOL     -0.736782
     15 H4          3.5130   -2.3400    4.4020 hn        1 MOL      0.361439
     16 H5          5.1680   -0.4270    2.7840 h1        1 MOL      0.007063
     17 H6          6.1370   -0.1880    4.9620 hc        1 MOL      0.036563
     18 H7          7.2830   -0.8200    3.8120 hc        1 MOL      0.036563
     19 N2          4.6450   -3.4700    2.2910 n         1 MOL     -0.577705
     20 C7          4.8440   -4.7220    1.4090 c3        1 MOL      0.248784
     21 C8          5.0570   -4.4350   -0.1060 c         1 MOL      0.627669
     22 O5          5.8900   -4.9860   -0.7940 o         1 MOL     -0.537212
     23 C9          5.8770   -5.6850    1.9950 c3        1 MOL     -0.467813
     24 H8          3.8500   -3.5090    2.9110 hn        1 MOL      0.330981
     25 H9          3.8790   -5.2280    1.3990 h1        1 MOL      0.084925
     26 H10         6.8590   -5.2000    1.9980 hc        1 MOL      0.125973
     27 H11         5.6070   -5.8390    3.0320 hc        1 MOL      0.125973
     28 H12         5.9160   -6.5510    1.3390 hc        1 MOL      0.125973
     29 N3          4.2270   -3.5280   -0.5930 n         1 MOL     -0.583190
     30 C10         4.3370   -2.9020   -1.9420 c3        1 MOL     -0.045862
     31 C11         5.5320   -2.0020   -2.2710 c         1 MOL      0.444987
     32 O6          5.7310   -1.6860   -3.4510 o         1 MOL     -0.551187
     33 C12         3.9870   -3.9620   -3.1020 c3        1 MOL      0.006970
     34 C13         2.9390   -4.9330   -2.7450 c         1 MOL      0.721412
     35 O7          3.1810   -6.1560   -2.9910 o         1 MOL     -0.730370
     36 O8          1.8670   -4.5720   -2.1580 o         1 MOL     -0.730370
     37 H13         3.5000   -3.1690   -0.0040 hn        1 MOL      0.301703
     38 H14         3.4400   -2.2750   -1.9290 h1        1 MOL      0.100887
     39 H15         4.8350   -4.5660   -3.4150 hc        1 MOL     -0.029819
     40 H16         3.5840   -3.4880   -3.9950 hc        1 MOL     -0.029819
     41 N4          6.1910   -1.4150   -1.2770 n         1 MOL      0.018147
     42 C14         7.2900   -0.5910   -1.6580 c3        1 MOL     -0.340123
     43 C15         6.8260    0.8350   -2.1830 c         1 MOL      0.679270
     44 O9          7.6630    1.4710   -2.7920 o         1 MOL     -0.607616
     45 H17         5.9600   -1.6100   -0.3120 hn        1 MOL      0.113562
     46 H18         7.7590   -1.0350   -2.5390 h1        1 MOL      0.131738
     47 H19         7.8890   -0.5050   -0.7660 h1        1 MOL      0.131738
     48 N5          5.6540    1.3120   -1.9390 n         1 MOL     -0.530624
     49 C16         5.1570    2.6000   -2.4870 c3        1 MOL      0.428254
     50 C17         4.5470    3.4160   -1.4360 c         1 MOL      0.374027
     51 O10         4.1920    2.8330   -0.4060 o         1 MOL     -0.461748
     52 C18         4.2200    2.3360   -3.6860 c3        1 MOL     -0.517815
     53 C19         2.8380    1.8180   -3.1840 c         1 MOL      0.716469
     54 N6          2.0050    2.7230   -2.7400 n         1 MOL     -0.621031
     55 O11         2.4420    0.6390   -3.3430 o         1 MOL     -0.583766
     56 H20         5.0030    0.7570   -1.4030 hn        1 MOL      0.267223
     57 H21         6.0440    3.1860   -2.7340 h1        1 MOL     -0.023437
     58 H22         4.7340    1.6850   -4.3960 hc        1 MOL      0.136371
     59 H23         4.0550    3.2670   -4.2040 hc        1 MOL      0.136371
     60 H24         2.2450    3.6940   -2.6210 hn        1 MOL      0.281074
     61 H25         1.1040    2.4420   -2.3850 hn        1 MOL      0.281074
     62 N7          4.2790    4.7100   -1.7190 n         1 MOL     -0.348647
     63 C20         3.8970    5.7020   -0.7050 c3        1 MOL     -0.127833
     64 C21         2.5810    6.2910   -1.1580 c         1 MOL      0.619002
     65 O12         1.9620    5.8800   -2.1470 o         1 MOL     -0.506613
     66 H26         4.4790    5.1110   -2.6250 hn        1 MOL      0.252450
     67 H27         4.6750    6.4680   -0.6360 h1        1 MOL      0.103521
     68 H28         3.7580    5.2450    0.2760 h1        1 MOL      0.103521
     69 N8          2.0740    7.3500   -0.4820 n         1 MOL     -0.570105
     70 C22         0.7250    8.0850   -0.6450 c3        1 MOL     -0.118939
     71 C23        -0.4810    7.2290   -0.1550 c         1 MOL      0.439385
     72 O13        -1.5020    7.7410    0.3000 o         1 MOL     -0.562234
     73 C24         0.7450    9.4760   -0.0070 c3        1 MOL      0.473869
     74 C25         0.9260    9.4370    1.5610 c3        1 MOL     -0.338720
     75 O14         1.6790   10.2520   -0.7500 oh        1 MOL     -0.651149
     76 H29         2.7800    7.6860    0.1520 hn        1 MOL      0.277573
     77 H30         0.4940    8.2290   -1.7080 h1        1 MOL      0.135132
     78 H31        -0.2110    9.9440   -0.2620 h1        1 MOL      0.038480
     79 H32         2.5300    9.8170   -0.7260 ho        1 MOL      0.383223
     80 H33         1.2900   10.4250    1.8550 hc        1 MOL      0.084042
     81 H34        -0.0350    9.3740    2.0760 hc        1 MOL      0.084042
     82 H35         1.6200    8.6380    1.8270 hc        1 MOL      0.084042
     83 N9         -0.3690    5.9240   -0.2730 n         1 MOL     -0.173055
     84 C26        -1.1260    4.8660    0.3940 c3        1 MOL     -0.007307
     85 C27        -1.2130    3.5930   -0.4460 c         1 MOL      0.322989
     86 O15        -0.5340    3.5370   -1.4440 o         1 MOL     -0.402316
     87 C28        -0.5050    4.6260    1.8070 c3        1 MOL      0.100896
     88 C29         0.6720    3.5700    1.7130 c3        1 MOL     -0.275217
     89 C30        -0.1420    5.9300    2.5720 c3        1 MOL     -0.121374
     90 C31         1.1970    3.3560    3.1250 c3        1 MOL     -0.415563
     91 H36         0.4090    5.6610   -0.8710 hn        1 MOL      0.130613
     92 H37        -2.1290    5.2640    0.5380 h1        1 MOL      0.059334
     93 H38        -1.3250    4.1920    2.3630 hc        1 MOL      0.017325
     94 H39         1.5080    4.0010    1.1740 hc        1 MOL      0.198387
     95 H40         0.3460    2.6330    1.2510 hc        1 MOL      0.198387
     96 H41         0.8710    6.2580    2.3490 hc        1 MOL      0.040826
     97 H42        -0.9170    6.6800    2.4220 hc        1 MOL      0.040826
     98 H43        -0.1570    5.7940    3.6520 hc        1 MOL      0.040826
     99 H44         0.4620    3.3050    3.9350 hc        1 MOL      0.116394
    100 H45         1.8470    2.4890    3.0690 hc        1 MOL      0.116394
    101 H46         1.9520    4.1250    3.2780 hc        1 MOL      0.116394
    102 N10        -1.9890    2.6120    0.0700 n         1 MOL     -0.353925
    103 C32        -2.1770    1.3340   -0.6150 c3        1 MOL      0.109036
    104 C33        -3.5670    0.6810   -0.3280 c         1 MOL      0.662966
    105 O16        -3.6860   -0.4690    0.0410 o         1 MOL     -0.640075
    106 C34        -1.0560    0.3930   -0.1860 c3        1 MOL     -0.086197
    107 C35        -0.8710   -0.8100   -1.0880 c         1 MOL      0.706280
    108 O17        -1.3570   -0.8680   -2.2510 o         1 MOL     -0.693223
    109 O18        -0.2110   -1.7460   -0.6320 o         1 MOL     -0.693223
    110 H47        -2.5670    2.9100    0.8470 hn        1 MOL      0.224247
    111 H48        -2.0860    1.4390   -1.6990 h1        1 MOL      0.024689
    112 H49        -1.2410    0.1290    0.8540 hc        1 MOL      0.025971
    113 H50        -0.0820    0.8810   -0.0580 hc        1 MOL      0.025971
    114 N11        -4.6910    1.3780   -0.6190 n         1 MOL     -0.636149
    115 C36        -6.0920    0.8330   -0.7580 c3        1 MOL      0.369929
    116 C37        -6.4080   -0.0780    0.4330 c         1 MOL      0.308043
    117 O19        -6.3910    0.4460    1.5570 o         1 MOL     -0.484753
    118 C38        -7.1240    2.0130   -0.8680 c3        1 MOL     -0.385326
    119 C39        -8.6060    1.4520   -0.8850 ca        1 MOL      0.138607
    120 C40        -9.1490    0.9260   -2.0950 ca        1 MOL     -0.212540
    121 C41        -9.3010    1.3330    0.3290 ca        1 MOL     -0.212540
    122 C42       -10.3870    0.1180   -2.1000 ca        1 MOL     -0.094111
    123 C43       -10.4950    0.6180    0.3370 ca        1 MOL     -0.094111
    124 C44       -11.0580    0.0370   -0.8620 ca        1 MOL     -0.156376
    125 H51        -4.5000    2.3060   -0.9770 hn        1 MOL      0.297730
    126 H52        -6.1110    0.3250   -1.7260 h1        1 MOL      0.006620
    127 H53        -6.9450    2.6040   -1.7620 hc        1 MOL      0.137168
    128 H54        -7.0610    2.6220    0.0280 hc        1 MOL      0.137168
    129 H55        -8.5810    0.8890   -3.0120 ha        1 MOL      0.139496
    130 H56        -8.8790    1.7450    1.2380 ha        1 MOL      0.139496
    131 H57       -10.7400   -0.3490   -3.0150 ha        1 MOL      0.111735
    132 H58       -11.0070    0.4210    1.2660 ha        1 MOL      0.111735
    133 H59       -11.9600   -0.5600   -0.8030 ha        1 MOL      0.113056
    134 N12        -6.8370   -1.3590    0.3160 n         1 MOL     -0.011493
    135 C45        -7.2750   -2.2180    1.4500 c3        1 MOL      0.082570
    136 C46        -6.1610   -2.5240    2.4050 c         1 MOL      0.293529
    137 O20        -6.3900   -2.8860    3.5410 o         1 MOL     -0.515194
    138 C47        -7.8780   -3.4820    0.7930 c3        1 MOL     -0.082234
    139 C48        -8.2610   -3.0080   -0.5770 c3        1 MOL     -0.020026
    140 C49        -7.1960   -2.0720   -0.8980 c3        1 MOL      0.074438
    141 H60        -8.0170   -1.7070    2.0710 h1        1 MOL      0.062039
    142 H61        -7.1020   -4.2530    0.7070 hc        1 MOL      0.046789
    143 H62        -8.7080   -3.8690    1.3800 hc        1 MOL      0.046789
    144 H63        -8.2600   -3.8010   -1.3300 hc        1 MOL      0.014479
    145 H64        -9.2670   -2.5680   -0.5860 hc        1 MOL      0.014479
    146 H65        -6.3560   -2.6700   -1.2520 h1        1 MOL     -0.017357
    147 H66        -7.4830   -1.4490   -1.7460 h1        1 MOL     -0.017357
    148 N13        -4.9330   -2.4360    2.0040 n         1 MOL     -0.087398
    149 C50        -3.7010   -2.5730    2.8770 c3        1 MOL     -0.330981
    150 C51        -3.3310   -1.3490    3.7810 c         1 MOL      0.510712
    151 O21        -2.9070   -1.5390    4.9100 o         1 MOL     -0.546308
    152 C52        -2.4690   -2.9960    2.0480 c3        1 MOL      0.149038
    153 C53        -2.4490   -4.3710    1.4270 c3        1 MOL     -0.024145
    154 C54        -1.1330   -4.7550    0.8070 c         1 MOL      0.580787
    155 O22        -1.0550   -4.8610   -0.4670 o         1 MOL     -0.678772
    156 O23        -0.1770   -4.9530    1.6040 o         1 MOL     -0.678772
    157 H67        -4.7620   -2.1630    1.0480 hn        1 MOL      0.098150
    158 H68        -3.8410   -3.4110    3.5600 h1        1 MOL      0.178281
    159 H69        -1.5790   -2.8330    2.6580 hc        1 MOL      0.016509
    160 H70        -2.3300   -2.3160    1.2110 hc        1 MOL      0.016509
    161 H71        -3.1690   -4.3790    0.6060 hc        1 MOL     -0.034391
    162 H72        -2.7330   -5.0990    2.2040 hc        1 MOL     -0.034391
    163 N14        -3.7770   -0.2150    3.3320 n         1 MOL     -0.113023
    164 C55        -3.7200    1.0420    4.0880 c3        1 MOL     -0.193149
    165 H73        -4.6800    1.5520    4.0150 h1        1 MOL      0.081107
    166 H74        -3.5030    0.8270    5.1340 h1        1 MOL      0.081107
    167 H75        -2.9380    1.6790    3.6760 h1        1 MOL      0.081107
    168 H76        -4.2150   -0.2000    2.4180 hn        1 MOL      0.199245
    169 Ca1        -0.6080   -3.4760   -2.5910 Ca        1 MOL      1.701401
    170 O24        -2.1110   -2.5780   -4.5550 oh        1 MOL     -0.838694
    171 H77        -2.5260   -3.3860   -4.8420 ho        1 MOL      0.411066
    172 H78        -2.1170   -2.0160   -5.3330 ho        1 MOL      0.411066
    173 O25        -3.2560   -3.0440   -1.7120 oh        1 MOL     -0.838694
    174 H79        -3.3580   -2.1970   -1.2800 ho        1 MOL      0.411066
    175 H80        -4.1020   -3.4680   -1.6280 ho        1 MOL      0.411066
    176 O26         0.3820   -4.8020   -4.9310 oh        1 MOL     -0.838694
    177 H81         0.4350   -5.5500   -5.5130 ho        1 MOL      0.411066
    178 H82         0.9860   -4.1570   -5.3070 ho        1 MOL      0.411066
    179 O27         1.2830   -1.8190   -4.0290 oh        1 MOL     -0.838694
    180 H83         1.7180   -0.9820   -3.8790 ho        1 MOL      0.411066
    181 H84         1.7380   -2.2010   -4.7820 ho        1 MOL      0.411066
    182 O28        -2.1590   -5.5920   -3.6260 oh        1 MOL     -0.838694
    183 H85        -2.9390   -6.0650   -3.3300 ho        1 MOL      0.411066
    184 H86        -1.8830   -6.0560   -4.4090 ho        1 MOL      0.411066
@<TRIPOS>BOND
     1    1    2 1   
     2    1    4 1   
     3    1    5 1   
     4    1    6 1   
     5    2    3 2   
     6    2    7 1   
     7    7    8 1   
     8    7   15 1   
     9    8    9 1   
    10    8   11 1   
    11    8   16 1   
    12    9   10 2   
    13    9   19 1   
    14   11   12 1   
    15   11   17 1   
    16   11   18 1   
    17   12   13 1   
    18   12   14 1   
    19   19   20 1   
    20   19   24 1   
    21   20   21 1   
    22   20   23 1   
    23   20   25 1   
    24   21   22 2   
    25   21   29 1   
    26   23   26 1   
    27   23   27 1   
    28   23   28 1   
    29   29   30 1   
    30   29   37 1   
    31   30   31 1   
    32   30   33 1   
    33   30   38 1   
    34   31   32 2   
    35   31   41 1   
    36   33   34 1   
    37   33   39 1   
    38   33   40 1   
    39   34   35 1   
    40   34   36 1   
    41   41   42 1   
    42   41   45 1   
    43   42   43 1   
    44   42   46 1   
    45   42   47 1   
    46   43   44 2   
    47   43   48 1   
    48   48   49 1   
    49   48   56 1   
    50   49   50 1   
    51   49   52 1   
    52   49   57 1   
    53   50   51 2   
    54   50   62 1   
    55   52   53 1   
    56   52   58 1   
    57   52   59 1   
    58   53   54 1   
    59   53   55 2   
    60   54   60 1   
    61   54   61 1   
    62   62   63 1   
    63   62   66 1   
    64   63   64 1   
    65   63   67 1   
    66   63   68 1   
    67   64   65 2   
    68   64   69 1   
    69   69   70 1   
    70   69   76 1   
    71   70   71 1   
    72   70   73 1   
    73   70   77 1   
    74   71   72 2   
    75   71   83 1   
    76   73   74 1   
    77   73   75 1   
    78   73   78 1   
    79   74   80 1   
    80   74   81 1   
    81   74   82 1   
    82   75   79 1   
    83   83   84 1   
    84   83   91 1   
    85   84   85 1   
    86   84   87 1   
    87   84   92 1   
    88   85   86 2   
    89   85  102 1   
    90   87   88 1   
    91   87   89 1   
    92   87   93 1   
    93   88   90 1   
    94   88   94 1   
    95   88   95 1   
    96   89   96 1   
    97   89   97 1   
    98   89   98 1   
    99   90   99 1   
   100   90  100 1   
   101   90  101 1   
   102  102  103 1   
   103  102  110 1   
   104  103  104 1   
   105  103  106 1   
   106  103  111 1   
   107  104  105 2   
   108  104  114 1   
   109  106  107 1   
   110  106  112 1   
   111  106  113 1   
   112  107  108 1   
   113  107  109 1   
   114  114  115 1   
   115  114  125 1   
   116  115  116 1   
   117  115  118 1   
   118  115  126 1   
   119  116  117 2   
   120  116  134 1   
   121  118  119 1   
   122  118  127 1   
   123  118  128 1   
   124  119  120 ar  
   125  119  121 ar  
   126  120  122 ar  
   127  120  129 1   
   128  121  123 ar  
   129  121  130 1   
   130  122  124 ar  
   131  122  131 1   
   132  123  124 ar  
   133  123  132 1   
   134  124  133 1   
   135  134  135 1   
   136  134  140 1   
   137  135  136 1   
   138  135  138 1   
   139  135  141 1   
   140  136  137 2   
   141  136  148 1   
   142  138  139 1   
   143  138  142 1   
   144  138  143 1   
   145  139  140 1   
   146  139  144 1   
   147  139  145 1   
   148  140  146 1   
   149  140  147 1   
   150  148  149 1   
   151  148  157 1   
   152  149  150 1   
   153  149  152 1   
   154  149  158 1   
   155  150  151 2   
   156  150  163 1   
   157  152  153 1   
   158  152  159 1   
   159  152  160 1   
   160  153  154 1   
   161  153  161 1   
   162  153  162 1   
   163  154  155 1   
   164  154  156 1   
   165  163  164 1   
   166  163  168 1   
   167  164  165 1   
   168  164  166 1   
   169  164  167 1   
   170  170  171 1   
   171  170  172 1   
   172  173  174 1   
   173  173  175 1   
   174  176  177 1   
   175  176  178 1   
   176  179  180 1   
   177  179  181 1   
   178  182  183 1   
   179  182  184 1   
@<TRIPOS>SUBSTRUCTURE
     1 MOL         1 TEMP              0 ****  ****    0 ROOT
