@<TRIPOS>MOLECULE
MOL
  189   185     1     0     0
SMALL
resp


@<TRIPOS>ATOM
      1 C1         -5.6830   -5.0930    2.6380 c3        1 MOL      0.140612
      2 C2         -4.4140   -4.3060    2.1700 c         1 MOL      0.493607
      3 O1         -4.0810   -3.3800    2.8660 o         1 MOL     -0.481757
      4 H1         -6.3740   -5.1970    1.8020 hc        1 MOL     -0.068522
      5 H2         -5.3890   -6.0820    2.9910 hc        1 MOL     -0.068522
      6 H3         -6.1700   -4.5490    3.4470 hc        1 MOL     -0.068522
      7 N1         -3.8250   -4.6970    1.0800 n         1 MOL     -0.581575
      8 C3         -2.8540   -3.8330    0.3710 c3        1 MOL      0.012618
      9 C4         -1.3910   -3.8480    0.9460 c         1 MOL      0.713925
     10 O2         -0.6230   -3.0980    0.4460 o         1 MOL     -0.539009
     11 C5         -3.5010   -2.5330   -0.0800 c3        1 MOL     -0.694368
     12 C6         -4.8540   -2.7090   -0.6900 c         1 MOL      0.764610
     13 O3         -4.9860   -2.9040   -1.8900 o         1 MOL     -0.639432
     14 O4         -5.9160   -2.6100   -0.0710 o         1 MOL     -0.639432
     15 H4         -4.1480   -5.5540    0.6660 hn        1 MOL      0.350578
     16 H5         -2.7080   -4.4410   -0.5230 h1        1 MOL      0.098041
     17 H6         -2.8680   -1.9430   -0.7350 hc        1 MOL      0.255286
     18 H7         -3.6820   -1.8750    0.7740 hc        1 MOL      0.255286
     19 N2         -1.1200   -4.6930    1.9230 n         1 MOL     -0.639586
     20 C7          0.1480   -4.6430    2.6120 c3        1 MOL      0.138588
     21 C8          0.9540   -5.9710    2.3570 c         1 MOL      0.686362
     22 O5          0.5500   -7.0570    2.8100 o         1 MOL     -0.612350
     23 C9          0.0660   -4.3930    4.1720 c3        1 MOL      0.291833
     24 C10        -0.7150   -3.1270    4.6160 c3        1 MOL      0.184780
     25 C11         1.4490   -4.5180    4.8400 c3        1 MOL     -0.391962
     26 C12        -0.8040   -3.0300    6.1390 c3        1 MOL     -0.227379
     27 H8         -1.7950   -5.3320    2.3120 hn        1 MOL      0.320482
     28 H9          0.7640   -3.8140    2.2570 h1        1 MOL     -0.023070
     29 H10        -0.5780   -5.1880    4.5400 hc        1 MOL     -0.095518
     30 H11        -1.7070   -3.2130    4.1920 hc        1 MOL     -0.002645
     31 H12        -0.1650   -2.2780    4.2020 hc        1 MOL     -0.002645
     32 H13         1.3920   -4.2540    5.8900 hc        1 MOL      0.077817
     33 H14         1.7740   -5.5620    4.7940 hc        1 MOL      0.077817
     34 H15         2.1900   -3.8680    4.3660 hc        1 MOL      0.077817
     35 H16        -0.9280   -3.9780    6.6640 hc        1 MOL      0.038267
     36 H17         0.1730   -2.6880    6.4870 hc        1 MOL      0.038267
     37 H18        -1.6260   -2.3750    6.4240 hc        1 MOL      0.038267
     38 N3          2.0960   -5.8950    1.6290 n         1 MOL     -0.692578
     39 C13         2.6170   -4.8480    0.8150 c3        1 MOL      0.451430
     40 C14         3.1620   -5.3430   -0.5210 c         1 MOL      0.359986
     41 O6          3.4770   -6.5390   -0.6520 o         1 MOL     -0.523789
     42 C15         3.6620   -4.0110    1.6120 c3        1 MOL     -0.222260
     43 C16         4.2190   -2.7280    0.9040 c         1 MOL      0.661168
     44 O7          5.4300   -2.7250    0.5920 o         1 MOL     -0.656255
     45 O8          3.4440   -1.7710    0.4930 o         1 MOL     -0.656255
     46 H19         2.8430   -6.5490    1.7890 hn        1 MOL      0.322544
     47 H20         1.8030   -4.1940    0.5050 h1        1 MOL     -0.079565
     48 H21         4.4980   -4.6380    1.9000 hc        1 MOL      0.030186
     49 H22         3.1650   -3.5980    2.4970 hc        1 MOL      0.030186
     50 N4          3.4330   -4.3980   -1.5060 n         1 MOL     -0.192682
     51 C17         3.9610   -4.7720   -2.8170 c3        1 MOL     -0.074440
     52 C18         5.2990   -4.1240   -3.1110 c         1 MOL      0.601202
     53 O9          6.2700   -4.8730   -3.3000 o         1 MOL     -0.575674
     54 H23         3.1820   -3.4310   -1.3570 hn        1 MOL      0.197587
     55 H24         3.2040   -4.5470   -3.5710 h1        1 MOL      0.047850
     56 H25         4.1630   -5.8480   -2.8440 h1        1 MOL      0.047850
     57 N5          5.4640   -2.7810   -2.9050 n         1 MOL     -0.589647
     58 C19         6.4930   -1.9460   -3.4780 c3        1 MOL      0.266914
     59 C20         7.4940   -1.3800   -2.4270 c         1 MOL      0.349337
     60 O10         8.6280   -1.0570   -2.7800 o         1 MOL     -0.596691
     61 C21         5.8810   -0.7490   -4.1960 c3        1 MOL     -0.459234
     62 C22         4.7940   -0.0550   -3.3660 c         1 MOL      0.673250
     63 O11         4.9520    0.8310   -2.4610 o         1 MOL     -0.654571
     64 O12         3.6720   -0.6470   -3.3840 o         1 MOL     -0.654571
     65 H26         4.6520   -2.3430   -2.4920 hn        1 MOL      0.384281
     66 H27         7.1070   -2.4910   -4.1850 h1        1 MOL      0.052217
     67 H28         5.4660   -1.1700   -5.1100 hc        1 MOL      0.091560
     68 H29         6.6670   -0.0710   -4.5350 hc        1 MOL      0.091560
     69 N6          7.1140   -1.2390   -1.1460 n         1 MOL      0.110487
     70 C23         8.0370   -0.7280   -0.1250 c3        1 MOL     -0.340769
     71 C24         7.9870    0.7940   -0.0010 c         1 MOL      0.561368
     72 O13         8.8640    1.4130    0.6330 o         1 MOL     -0.596796
     73 H30         6.2630   -1.6940   -0.8580 hn        1 MOL      0.096764
     74 H31         9.0750   -1.0290   -0.2900 h1        1 MOL      0.126819
     75 H32         7.7280   -1.1520    0.8410 h1        1 MOL      0.126819
     76 N7          7.1300    1.5620   -0.7510 n         1 MOL     -0.021247
     77 C25         6.9890    3.0260   -0.7620 c3        1 MOL      0.004836
     78 C26         6.7100    3.5660    0.7050 c         1 MOL      0.462568
     79 O14         7.0990    4.6880    0.9700 o         1 MOL     -0.525923
     80 C27         8.2440    3.6570   -1.3960 c3        1 MOL     -0.157118
     81 C28         8.6880    2.9430   -2.6580 c3        1 MOL     -0.164782
     82 C29         9.3610    3.9120   -3.6170 c         1 MOL      0.686167
     83 N8          9.1480    3.9390   -4.9140 n         1 MOL     -0.802530
     84 O15        10.1880    4.7070   -3.2220 o         1 MOL     -0.616233
     85 H33         6.5420    1.0690   -1.4170 hn        1 MOL      0.042068
     86 H34         6.1270    3.1870   -1.4110 h1        1 MOL      0.085324
     87 H35         8.9950    3.7160   -0.6160 hc        1 MOL      0.082312
     88 H36         7.9640    4.6600   -1.7300 hc        1 MOL      0.082312
     89 H37         7.8540    2.5430   -3.2360 hc        1 MOL      0.075546
     90 H38         9.3500    2.1070   -2.4870 hc        1 MOL      0.075546
     91 H39         8.7440    3.1360   -5.3920 hn        1 MOL      0.347244
     92 H40         9.5690    4.7460   -5.3360 hn        1 MOL      0.347244
     93 N9          6.0730    2.7900    1.6190 n         1 MOL     -0.335977
     94 C30         5.6240    3.1850    3.0010 c3        1 MOL     -0.150417
     95 C31         4.0670    2.9820    3.2290 c         1 MOL      0.481910
     96 O16         3.6040    3.2590    4.3360 o         1 MOL     -0.559906
     97 C32         6.4760    2.4000    4.0800 c3        1 MOL      0.243842
     98 C33         6.4650    0.8990    3.8560 c3        1 MOL     -0.311632
     99 C34         7.8760    2.9460    3.9970 c3        1 MOL     -0.311632
    100 H41         5.8880    1.8340    1.3490 hn        1 MOL      0.216321
    101 H42         5.8920    4.2420    3.0680 h1        1 MOL      0.132424
    102 H43         6.1130    2.6220    5.0870 hc        1 MOL      0.001281
    103 H44         6.9220    0.3290    4.6610 hc        1 MOL      0.073712
    104 H45         5.4660    0.4960    3.7620 hc        1 MOL      0.073712
    105 H46         6.9020    0.5500    2.9170 hc        1 MOL      0.073712
    106 H47         8.4130    2.6020    4.8790 hc        1 MOL      0.073712
    107 H48         8.2720    2.6430    3.0230 hc        1 MOL      0.073712
    108 H49         7.8940    4.0380    4.0030 hc        1 MOL      0.073712
    109 N10         3.3110    2.4730    2.2380 n         1 MOL     -0.346667
    110 C35         1.8730    2.2010    2.4190 c3        1 MOL      0.136142
    111 C36         1.0740    2.3930    1.0930 c         1 MOL      0.499968
    112 O17         1.6420    2.6340    0.0630 o         1 MOL     -0.507079
    113 C37         1.8540    0.7300    2.9900 c3        1 MOL     -0.015673
    114 C38         0.6270   -0.1050    2.6650 c         1 MOL      0.553604
    115 N11         0.8840   -1.0330    1.7820 n         1 MOL     -0.775859
    116 O18        -0.4640    0.0070    3.2080 o         1 MOL     -0.623253
    117 H50         3.6990    2.2950    1.3290 hn        1 MOL      0.221428
    118 H51         1.4210    2.9290    3.0960 h1        1 MOL      0.048086
    119 H52         1.9230    0.8440    4.0620 hc        1 MOL      0.020628
    120 H53         2.7210    0.1350    2.6950 hc        1 MOL      0.020628
    121 H54         1.7750   -1.0720    1.2930 hn        1 MOL      0.384496
    122 H55         0.2180   -1.7510    1.5520 hn        1 MOL      0.384496
    123 N12        -0.2010    2.4370    1.2310 n         1 MOL     -0.479864
    124 C39        -1.1280    2.7460    0.1150 c3        1 MOL      0.181397
    125 C40        -2.4370    3.4140    0.5360 c         1 MOL      0.628301
    126 O19        -2.8520    3.2680    1.6770 o         1 MOL     -0.562120
    127 C41        -1.3860    1.4650   -0.6850 c3        1 MOL     -0.203014
    128 C42        -2.3840    1.5020   -1.7670 ca        1 MOL      0.071500
    129 C43        -2.2020    2.0790   -2.9960 ca        1 MOL     -0.067329
    130 C44        -3.6220    0.8570   -1.4890 ca        1 MOL     -0.067329
    131 C45        -3.1630    1.8500   -4.0190 ca        1 MOL     -0.421593
    132 C46        -4.5190    0.5580   -2.5330 ca        1 MOL     -0.421593
    133 C47        -4.3100    1.0710   -3.7830 ca        1 MOL      0.449476
    134 O20        -5.1200    0.8730   -4.8150 oh        1 MOL     -0.400166
    135 H56        -0.7200    2.3960    2.0990 hn        1 MOL      0.282831
    136 H57        -0.5480    3.4290   -0.4920 h1        1 MOL      0.050442
    137 H58        -1.6870    0.6820    0.0090 hc        1 MOL      0.096775
    138 H59        -0.4310    1.1970   -1.1560 hc        1 MOL      0.096775
    139 H60        -1.2750    2.5620   -3.2250 ha        1 MOL      0.112850
    140 H61        -3.8740    0.4770   -0.5010 ha        1 MOL      0.112850
    141 H62        -2.9650    2.2070   -5.0250 ha        1 MOL      0.169022
    142 H63        -5.3750   -0.0790   -2.3780 ha        1 MOL      0.169022
    143 H64        -4.7470    1.2480   -5.6250 ho        1 MOL      0.297230
    144 N13        -2.9940    4.3270   -0.2550 n         1 MOL     -0.755222
    145 C48        -4.3010    4.9230   -0.0640 c3        1 MOL      0.608724
    146 C49        -5.2400    4.8060   -1.2900 c         1 MOL      0.491206
    147 O21        -4.9800    5.5320   -2.2550 o         1 MOL     -0.570501
    148 C50        -4.0580    6.3780    0.5150 c3        1 MOL     -0.098144
    149 C51        -5.4030    7.0790    0.9260 c3        1 MOL     -0.180457
    150 C52        -5.2190    8.5880    1.1730 c         1 MOL      0.714113
    151 O22        -5.9500    9.3240    0.4810 o         1 MOL     -0.675275
    152 O23        -4.5210    9.0080    2.0960 o         1 MOL     -0.675275
    153 H65        -2.4920    4.5960   -1.0830 hn        1 MOL      0.292698
    154 H66        -4.8200    4.4970    0.7920 h1        1 MOL     -0.097618
    155 H67        -3.6180    6.9910   -0.2660 hc        1 MOL      0.024868
    156 H68        -3.3670    6.2160    1.3440 hc        1 MOL      0.024868
    157 H69        -5.6860    6.5880    1.8540 hc        1 MOL      0.037280
    158 H70        -6.1890    6.7960    0.2310 hc        1 MOL      0.037280
    159 N14        -6.3860    4.0500   -1.3080 n         1 MOL     -0.506131
    160 C53        -6.6330    2.9970   -0.2860 c3        1 MOL      0.102435
    161 C54        -7.2550    3.5950    0.9630 c         1 MOL      0.475954
    162 O24        -8.0380    4.5680    0.9460 o         1 MOL     -0.541929
    163 C55        -7.6480    1.9670   -0.9050 c3        1 MOL      0.016185
    164 C56        -7.4530    0.5800   -0.2070 c3        1 MOL     -0.258604
    165 C57        -8.0610   -0.5880   -0.9080 c         1 MOL      0.962297
    166 O25        -7.8410   -0.8760   -2.1170 o         1 MOL     -0.852458
    167 O26        -8.6640   -1.4540   -0.2210 o         1 MOL     -0.852458
    168 H71        -6.7550    4.0220   -2.2550 hn        1 MOL      0.281913
    169 H72        -5.6580    2.5420   -0.1020 h1        1 MOL     -0.019634
    170 H73        -7.3700    1.8640   -1.9500 hc        1 MOL      0.029140
    171 H74        -8.6410    2.3670   -0.7380 hc        1 MOL      0.029140
    172 H75        -7.8860    0.7170    0.7850 hc        1 MOL      0.036525
    173 H76        -6.3980    0.3450   -0.0850 hc        1 MOL      0.036525
    174 N15        -7.0790    2.8570    2.0500 n         1 MOL     -0.177717
    175 C58        -7.4360    3.2320    3.4380 c3        1 MOL     -0.251306
    176 H77        -6.5710    3.6800    3.9270 h1        1 MOL      0.106779
    177 H78        -8.2550    3.9500    3.4220 h1        1 MOL      0.106779
    178 H79        -7.7430    2.3420    3.9870 h1        1 MOL      0.106779
    179 H80        -6.5150    2.0360    1.9480 hn        1 MOL      0.229704
    180 Ca1        -7.6250   -3.5520   -1.8120 Ca        1 MOL      1.551087
    181 O27       -10.0660   -2.9660   -3.0660 oh        1 MOL     -0.823782
    182 H81       -10.6500   -2.2900   -2.7210 ho        1 MOL      0.389902
    183 H82       -10.6390   -3.7010   -3.2550 ho        1 MOL      0.389902
    184 O28        -7.5150   -3.2620   -4.5380 oh        1 MOL     -0.823782
    185 H83        -8.4470   -3.2340   -4.7690 ho        1 MOL      0.389902
    186 H84        -7.1580   -2.4380   -4.8840 ho        1 MOL      0.389902
    187 O29        -6.3520   -5.6220   -2.9070 oh        1 MOL     -0.823782
    188 H85        -5.4250   -5.7220   -3.1200 ho        1 MOL      0.389902
    189 H86        -6.8070   -5.9210   -3.6970 ho        1 MOL      0.389902
@<TRIPOS>BOND
     1    1    2 1   
     2    1    4 1   
     3    1    5 1   
     4    1    6 1   
     5    2    3 2   
     6    2    7 1   
     7    7    8 1   
     8    7   15 1   
     9    8    9 1   
    10    8   11 1   
    11    8   16 1   
    12    9   10 2   
    13    9   19 1   
    14   11   12 1   
    15   11   17 1   
    16   11   18 1   
    17   12   13 1   
    18   12   14 1   
    19   19   20 1   
    20   19   27 1   
    21   20   21 1   
    22   20   23 1   
    23   20   28 1   
    24   21   22 2   
    25   21   38 1   
    26   23   24 1   
    27   23   25 1   
    28   23   29 1   
    29   24   26 1   
    30   24   30 1   
    31   24   31 1   
    32   25   32 1   
    33   25   33 1   
    34   25   34 1   
    35   26   35 1   
    36   26   36 1   
    37   26   37 1   
    38   38   39 1   
    39   38   46 1   
    40   39   40 1   
    41   39   42 1   
    42   39   47 1   
    43   40   41 2   
    44   40   50 1   
    45   42   43 1   
    46   42   48 1   
    47   42   49 1   
    48   43   44 1   
    49   43   45 1   
    50   50   51 1   
    51   50   54 1   
    52   51   52 1   
    53   51   55 1   
    54   51   56 1   
    55   52   53 2   
    56   52   57 1   
    57   57   58 1   
    58   57   65 1   
    59   58   59 1   
    60   58   61 1   
    61   58   66 1   
    62   59   60 2   
    63   59   69 1   
    64   61   62 1   
    65   61   67 1   
    66   61   68 1   
    67   62   63 1   
    68   62   64 1   
    69   69   70 1   
    70   69   73 1   
    71   70   71 1   
    72   70   74 1   
    73   70   75 1   
    74   71   72 2   
    75   71   76 1   
    76   76   77 1   
    77   76   85 1   
    78   77   78 1   
    79   77   80 1   
    80   77   86 1   
    81   78   79 2   
    82   78   93 1   
    83   80   81 1   
    84   80   87 1   
    85   80   88 1   
    86   81   82 1   
    87   81   89 1   
    88   81   90 1   
    89   82   83 1   
    90   82   84 2   
    91   83   91 1   
    92   83   92 1   
    93   93   94 1   
    94   93  100 1   
    95   94   95 1   
    96   94   97 1   
    97   94  101 1   
    98   95   96 2   
    99   95  109 1   
   100   97   98 1   
   101   97   99 1   
   102   97  102 1   
   103   98  103 1   
   104   98  104 1   
   105   98  105 1   
   106   99  106 1   
   107   99  107 1   
   108   99  108 1   
   109  109  110 1   
   110  109  117 1   
   111  110  111 1   
   112  110  113 1   
   113  110  118 1   
   114  111  112 2   
   115  111  123 1   
   116  113  114 1   
   117  113  119 1   
   118  113  120 1   
   119  114  115 1   
   120  114  116 2   
   121  115  121 1   
   122  115  122 1   
   123  123  124 1   
   124  123  135 1   
   125  124  125 1   
   126  124  127 1   
   127  124  136 1   
   128  125  126 2   
   129  125  144 1   
   130  127  128 1   
   131  127  137 1   
   132  127  138 1   
   133  128  129 ar  
   134  128  130 ar  
   135  129  131 ar  
   136  129  139 1   
   137  130  132 ar  
   138  130  140 1   
   139  131  133 ar  
   140  131  141 1   
   141  132  133 ar  
   142  132  142 1   
   143  133  134 1   
   144  134  143 1   
   145  144  145 1   
   146  144  153 1   
   147  145  146 1   
   148  145  148 1   
   149  145  154 1   
   150  146  147 2   
   151  146  159 1   
   152  148  149 1   
   153  148  155 1   
   154  148  156 1   
   155  149  150 1   
   156  149  157 1   
   157  149  158 1   
   158  150  151 1   
   159  150  152 1   
   160  159  160 1   
   161  159  168 1   
   162  160  161 1   
   163  160  163 1   
   164  160  169 1   
   165  161  162 2   
   166  161  174 1   
   167  163  164 1   
   168  163  170 1   
   169  163  171 1   
   170  164  165 1   
   171  164  172 1   
   172  164  173 1   
   173  165  166 1   
   174  165  167 1   
   175  174  175 1   
   176  174  179 1   
   177  175  176 1   
   178  175  177 1   
   179  175  178 1   
   180  181  182 1   
   181  181  183 1   
   182  184  185 1   
   183  184  186 1   
   184  187  188 1   
   185  187  189 1   
@<TRIPOS>SUBSTRUCTURE
     1 MOL         1 TEMP              0 ****  ****    0 ROOT
