@<TRIPOS>MOLECULE
MOL
  191   184     1     0     0
SMALL
resp


@<TRIPOS>ATOM
      1 C1         -3.5940    0.5770   -3.3590 c3        1 MOL     -0.559405
      2 C2         -4.3250    1.0610   -2.0810 c         1 MOL      0.761566
      3 O1         -3.8840    0.7800   -0.9840 o         1 MOL     -0.465387
      4 H1         -4.3200    0.4290   -4.1580 hc        1 MOL      0.143181
      5 H2         -2.8630    1.3250   -3.6660 hc        1 MOL      0.143181
      6 H3         -3.0860   -0.3650   -3.1520 hc        1 MOL      0.143181
      7 N1         -5.4960    1.7270   -2.2470 n         1 MOL     -0.679892
      8 C3         -6.4960    1.9370   -1.2040 c3        1 MOL     -0.022386
      9 C4         -6.9080    0.6590   -0.4540 c         1 MOL      0.478842
     10 O2         -7.5320    0.6430    0.6260 o         1 MOL     -0.523549
     11 C5         -6.2870    3.1180   -0.3000 c3        1 MOL     -0.266536
     12 C6         -6.0150    4.4850   -0.9330 c         1 MOL      0.777726
     13 O3         -6.0610    5.4290   -0.1470 o         1 MOL     -0.669722
     14 O4         -5.8900    4.7010   -2.1160 o         1 MOL     -0.669722
     15 H4         -5.6970    2.2030   -3.1110 hn        1 MOL      0.345136
     16 H5         -7.3890    2.2120   -1.7620 h1        1 MOL      0.122858
     17 H6         -5.4830    2.8120    0.3660 hc        1 MOL      0.084774
     18 H7         -7.2720    3.1800    0.1560 hc        1 MOL      0.084774
     19 N2         -6.8490   -0.4020   -1.2230 n         1 MOL     -0.317347
     20 C7         -7.1980   -1.7900   -0.8900 c3        1 MOL      0.134870
     21 C8         -6.0030   -2.7120   -0.5330 c         1 MOL      0.387221
     22 O5         -6.1600   -3.9550   -0.3650 o         1 MOL     -0.526298
     23 C9         -8.1440   -2.4970   -1.9500 c3        1 MOL      0.025323
     24 C10        -9.5400   -1.7540   -2.0940 c3        1 MOL     -0.135325
     25 C11       -10.5510   -2.4790   -3.0120 c3        1 MOL     -0.067198
     26 C12       -11.9320   -1.9100   -2.9370 c3        1 MOL      0.121372
     27 N3        -12.7320   -2.4010   -4.0380 n4        1 MOL     -0.257347
     28 H8         -6.3120   -0.2590   -2.0590 hn        1 MOL      0.210509
     29 H9         -7.7930   -1.7910    0.0250 h1        1 MOL      0.084419
     30 H10        -8.3140   -3.5280   -1.6580 hc        1 MOL      0.004405
     31 H11        -7.5690   -2.4190   -2.8830 hc        1 MOL      0.004405
     32 H12        -9.3090   -0.7100   -2.2670 hc        1 MOL      0.053952
     33 H13        -9.9980   -1.7410   -1.1070 hc        1 MOL      0.053952
     34 H14       -10.6870   -3.5300   -2.7450 hc        1 MOL      0.045967
     35 H15       -10.1530   -2.3790   -4.0200 hc        1 MOL      0.045967
     36 H16       -11.8300   -0.8290   -3.0630 hx        1 MOL      0.065476
     37 H17       -12.4240   -1.9780   -1.9750 hx        1 MOL      0.065476
     38 H18       -12.5570   -2.0220   -4.9530 hn        1 MOL      0.252648
     39 H19       -12.6070   -3.4000   -4.1610 hn        1 MOL      0.252648
     40 H20       -13.7020   -2.1440   -3.9600 hn        1 MOL      0.252648
     41 N4         -4.7740   -2.1950   -0.5670 n         1 MOL     -0.277037
     42 C13        -3.5520   -2.9340   -0.0470 c3        1 MOL      0.095138
     43 C14        -3.8620   -3.2630    1.4240 c         1 MOL      0.445409
     44 O6         -4.6630   -2.5920    2.0710 o         1 MOL     -0.456815
     45 C15        -2.2800   -2.0470   -0.0800 c3        1 MOL     -0.484915
     46 C16        -1.0680   -2.9930    0.1520 c         1 MOL      0.688590
     47 O7         -1.0930   -4.2350   -0.0160 o         1 MOL     -0.677520
     48 O8         -0.0650   -2.6200    0.6600 o         1 MOL     -0.677520
     49 H21        -4.6700   -1.2060   -0.7650 hn        1 MOL      0.142366
     50 H22        -3.3930   -3.8530   -0.6060 h1        1 MOL      0.014414
     51 H23        -2.4460   -1.2060    0.5930 hc        1 MOL      0.202939
     52 H24        -2.1600   -1.7230   -1.1200 hc        1 MOL      0.202939
     53 N5         -3.1080   -4.2280    1.9420 n         1 MOL     -0.268090
     54 C17        -3.0430   -4.6860    3.2930 c3        1 MOL     -0.242616
     55 C18        -2.4970   -3.5510    4.2160 c         1 MOL      0.488968
     56 O9         -2.7000   -3.6890    5.4170 o         1 MOL     -0.557345
     57 H25        -2.4100   -4.6100    1.3290 hn        1 MOL      0.235579
     58 H26        -2.4070   -5.5710    3.3950 h1        1 MOL      0.138861
     59 H27        -4.0710   -4.8420    3.6110 h1        1 MOL      0.138861
     60 N6         -1.9830   -2.4160    3.7480 n         1 MOL     -0.148606
     61 C19        -1.5460   -1.2720    4.5790 c3        1 MOL      0.063587
     62 C20        -2.3750   -0.0260    4.2750 c         1 MOL      0.421189
     63 O10        -2.1610    1.0190    4.9060 o         1 MOL     -0.491450
     64 C21         0.0270   -1.1570    4.3730 c3        1 MOL     -0.374071
     65 C22         0.6480    0.0480    5.1040 c         1 MOL      0.836065
     66 N7          0.3840    0.1460    6.4270 n         1 MOL     -0.938179
     67 O11         1.3680    0.9270    4.5720 o         1 MOL     -0.625503
     68 H28        -1.6970   -2.4660    2.7800 hn        1 MOL      0.172570
     69 H29        -1.7070   -1.3990    5.6410 h1        1 MOL      0.053258
     70 H30         0.1670   -1.0760    3.2910 hc        1 MOL      0.088784
     71 H31         0.4760   -2.0660    4.7550 hc        1 MOL      0.088784
     72 H32        -0.2590   -0.5070    6.8370 hn        1 MOL      0.414486
     73 H33         0.6280    0.9960    6.8990 hn        1 MOL      0.414486
     74 N8         -3.2710   -0.0240    3.3310 n         1 MOL     -0.163233
     75 C23        -3.9140    1.1880    2.7570 c3        1 MOL     -0.112020
     76 C24        -2.9830    2.2710    2.3080 c         1 MOL      0.605135
     77 O12        -2.8370    3.2690    2.9950 o         1 MOL     -0.552844
     78 H34        -3.5620   -0.9050    2.9330 hn        1 MOL      0.099839
     79 H35        -4.6470    1.5750    3.4640 h1        1 MOL      0.089591
     80 H36        -4.4580    0.9660    1.8430 h1        1 MOL      0.089591
     81 N9         -2.3090    2.1320    1.1780 n         1 MOL     -0.248206
     82 C25        -1.5350    3.1510    0.5560 c3        1 MOL     -0.083199
     83 C26        -0.3460    2.5720   -0.2610 c         1 MOL      0.625060
     84 O13        -0.1730    1.3850   -0.5990 o         1 MOL     -0.570656
     85 C27        -2.4580    3.9230   -0.4220 c3        1 MOL      0.058146
     86 C28        -1.9020    5.2440   -0.9470 ca        1 MOL      0.027584
     87 C29        -1.7140    6.3320   -0.0620 ca        1 MOL     -0.139556
     88 C30        -1.6090    5.4280   -2.3240 ca        1 MOL     -0.139556
     89 C31        -1.0770    7.5200   -0.4310 ca        1 MOL     -0.237016
     90 C32        -0.9790    6.6320   -2.6760 ca        1 MOL     -0.237016
     91 C33        -0.7210    7.6670   -1.8000 ca        1 MOL      0.319989
     92 O14        -0.0990    8.7670   -2.1950 oh        1 MOL     -0.440339
     93 H37        -2.4610    1.2470    0.7150 hn        1 MOL      0.064667
     94 H38        -1.1940    3.8530    1.3170 h1        1 MOL      0.093747
     95 H39        -3.3650    4.1150    0.1370 hc        1 MOL      0.047617
     96 H40        -2.7110    3.3010   -1.2770 hc        1 MOL      0.047617
     97 H41        -1.9560    6.2210    0.9900 ha        1 MOL      0.132079
     98 H42        -1.8120    4.6360   -3.0330 ha        1 MOL      0.132079
     99 H43        -0.9820    8.3440    0.2640 ha        1 MOL      0.136154
    100 H44        -0.5930    6.8370   -3.6600 ha        1 MOL      0.136154
    101 H45        -0.0220    8.6850   -3.1490 ho        1 MOL      0.319794
    102 N10         0.6050    3.4120   -0.5150 n         1 MOL     -0.545105
    103 C34         1.8540    3.1210   -1.1790 c3        1 MOL      0.272254
    104 C35         2.9410    2.7030   -0.1490 c         1 MOL      0.469426
    105 O15         3.7110    1.7880   -0.3560 o         1 MOL     -0.498955
    106 C36         2.2640    4.2570   -2.1660 c3        1 MOL      0.002573
    107 C37         3.5400    3.9340   -2.9950 c3        1 MOL      0.090541
    108 C38         2.4610    5.6070   -1.4640 c3        1 MOL     -0.372740
    109 C39         3.3610    2.5950   -3.8120 c3        1 MOL     -0.240656
    110 H46         0.6070    4.3210   -0.0820 hn        1 MOL      0.227102
    111 H47         1.6820    2.1930   -1.7220 h1        1 MOL      0.042909
    112 H48         1.4520    4.2330   -2.8960 hc        1 MOL     -0.004900
    113 H49         4.4620    3.9170   -2.4130 hc        1 MOL     -0.001777
    114 H50         3.7490    4.7430   -3.6920 hc        1 MOL     -0.001777
    115 H51         2.7990    6.3670   -2.1690 hc        1 MOL      0.090897
    116 H52         1.5270    6.0380   -1.0950 hc        1 MOL      0.090897
    117 H53         3.2720    5.5650   -0.7450 hc        1 MOL      0.090897
    118 H54         3.3370    1.7530   -3.1190 hc        1 MOL      0.059005
    119 H55         2.4950    2.6900   -4.4590 hc        1 MOL      0.059005
    120 H56         4.2280    2.4940   -4.4790 hc        1 MOL      0.059005
    121 N11         2.9090    3.3060    1.0620 n         1 MOL     -0.317078
    122 C40         3.6050    2.7230    2.2420 c3        1 MOL     -0.176152
    123 C41         5.1240    2.4860    2.1630 c         1 MOL      0.624373
    124 O16         5.7590    1.7850    2.9980 o         1 MOL     -0.553727
    125 C42         3.2590    3.5450    3.5240 c3        1 MOL      0.046855
    126 O17         3.6750    4.8120    3.3710 oh        1 MOL     -0.642056
    127 H57         2.2870    4.0820    1.2210 hn        1 MOL      0.303518
    128 H58         3.3020    1.6930    2.4460 h1        1 MOL      0.110116
    129 H59         3.7950    3.1870    4.3990 h1        1 MOL      0.097588
    130 H60         2.1850    3.4230    3.6890 h1        1 MOL      0.097588
    131 H61         3.7580    5.1850    4.2510 ho        1 MOL      0.444921
    132 N12         5.7730    3.0930    1.1750 n         1 MOL     -0.303742
    133 C43         7.1900    3.1460    0.8630 c3        1 MOL      0.245313
    134 C44         7.8300    1.7660    0.9160 c         1 MOL      0.474173
    135 O18         8.9830    1.5660    1.3020 o         1 MOL     -0.532237
    136 C45         7.8050    4.2750    1.6790 c3        1 MOL     -0.228345
    137 H62         5.1770    3.6280    0.5580 hn        1 MOL      0.187136
    138 H63         7.2760    3.4810   -0.1730 h1        1 MOL      0.039899
    139 H64         7.4650    5.2140    1.2410 hc        1 MOL      0.057886
    140 H65         7.5530    4.2300    2.7320 hc        1 MOL      0.057886
    141 H66         8.8860    4.2090    1.5250 hc        1 MOL      0.057886
    142 N13         7.1240    0.7500    0.4570 n         1 MOL     -0.557563
    143 C46         7.5770   -0.6550    0.4260 c3        1 MOL      0.415428
    144 C47         7.2720   -1.3530   -0.9430 c         1 MOL      0.509040
    145 O19         6.2680   -0.9270   -1.5500 o         1 MOL     -0.507839
    146 C48         6.8610   -1.3130    1.6260 c3        1 MOL     -0.392534
    147 H67         6.2060    0.9280    0.0790 hn        1 MOL      0.200402
    148 H68         8.6480   -0.7670    0.6260 h1        1 MOL     -0.048483
    149 H69         7.2580   -0.9700    2.5760 hc        1 MOL      0.098063
    150 H70         5.8260   -0.9690    1.7090 hc        1 MOL      0.098063
    151 H71         6.9560   -2.3940    1.5610 hc        1 MOL      0.098063
    152 N14         8.0770   -2.2960   -1.3210 n         1 MOL     -0.502346
    153 C49         7.9630   -3.1780   -2.5320 c3        1 MOL     -0.126762
    154 C50         7.9900   -2.3830   -3.9000 c         1 MOL      0.434460
    155 O20         7.4180   -2.7480   -4.8560 o         1 MOL     -0.456511
    156 C51         6.8410   -4.2310   -2.3410 c3        1 MOL      0.243503
    157 C52         5.3400   -3.8550   -2.4360 c3        1 MOL     -0.215250
    158 C53         4.4110   -5.0370   -2.5720 c         1 MOL      0.615580
    159 O21         4.7060   -5.8630   -3.4800 o         1 MOL     -0.675427
    160 O22         3.4890   -5.1770   -1.7380 o         1 MOL     -0.675427
    161 H72         8.7770   -2.5490   -0.6330 hn        1 MOL      0.311722
    162 H73         8.8350   -3.8350   -2.4500 h1        1 MOL      0.093351
    163 H74         6.9460   -4.7960   -1.4140 hc        1 MOL     -0.027138
    164 H75         7.0540   -4.9840   -3.0980 hc        1 MOL     -0.027138
    165 H76         5.0860   -3.3630   -3.3770 hc        1 MOL      0.053546
    166 H77         5.0870   -3.2670   -1.5430 hc        1 MOL      0.053546
    167 N15         8.5920   -1.1980   -3.9290 n         1 MOL     -0.238083
    168 C54         8.4740   -0.2210   -4.9670 c3        1 MOL     -0.022736
    169 H78         7.5140   -0.3390   -5.4680 h1        1 MOL      0.051673
    170 H79         8.5360    0.7770   -4.5350 h1        1 MOL      0.051673
    171 H80         9.2800   -0.3580   -5.6890 h1        1 MOL      0.051673
    172 H81         8.9740   -0.8750   -3.0550 hn        1 MOL      0.189441
    173 Ca1         1.5430   -4.5640   -0.0560 Ca        1 MOL      1.709102
    174 O23         3.3220   -6.2210    1.0460 oh        1 MOL     -0.841788
    175 H82         3.8020   -6.7220    1.7080 ho        1 MOL      0.420839
    176 H83         3.8410   -6.3230    0.2540 ho        1 MOL      0.420839
    177 O24         0.2560   -5.4800   -2.4740 oh        1 MOL     -0.841788
    178 H84        -0.6850   -5.6280   -2.4090 ho        1 MOL      0.420839
    179 H85         0.3820   -5.0800   -3.3320 ho        1 MOL      0.420839
    180 O25         0.4300   -6.9140    0.5360 oh        1 MOL     -0.841788
    181 H86        -0.2930   -7.5030    0.3040 ho        1 MOL      0.420839
    182 H87         0.6290   -7.1250    1.4430 ho        1 MOL      0.420839
    183 O26         3.3240   -2.6980    0.6790 oh        1 MOL     -0.841788
    184 H88         3.5830   -1.9820    0.1010 ho        1 MOL      0.420839
    185 H89         3.1410   -2.2630    1.5130 ho        1 MOL      0.420839
    186 O27         1.4600   -2.7650   -2.0560 oh        1 MOL     -0.841788
    187 H90         2.1200   -2.0680   -1.9790 ho        1 MOL      0.420839
    188 H91         1.0410   -2.6010   -2.8890 ho        1 MOL      0.420839
    189 O28         1.3740   -4.4740    2.6230 oh        1 MOL     -0.841788
    190 H92         0.8050   -4.7320    3.3510 ho        1 MOL      0.420839
    191 H93         2.0860   -3.9940    3.0410 ho        1 MOL      0.420839
@<TRIPOS>BOND
     1    1    2 1   
     2    1    4 1   
     3    1    5 1   
     4    1    6 1   
     5    2    3 2   
     6    2    7 1   
     7    7    8 1   
     8    7   15 1   
     9    8    9 1   
    10    8   11 1   
    11    8   16 1   
    12    9   10 2   
    13    9   19 1   
    14   11   12 1   
    15   11   17 1   
    16   11   18 1   
    17   12   13 1   
    18   12   14 1   
    19   19   20 1   
    20   19   28 1   
    21   20   21 1   
    22   20   23 1   
    23   20   29 1   
    24   21   22 2   
    25   21   41 1   
    26   23   24 1   
    27   23   30 1   
    28   23   31 1   
    29   24   25 1   
    30   24   32 1   
    31   24   33 1   
    32   25   26 1   
    33   25   34 1   
    34   25   35 1   
    35   26   27 1   
    36   26   36 1   
    37   26   37 1   
    38   27   38 1   
    39   27   39 1   
    40   27   40 1   
    41   41   42 1   
    42   41   49 1   
    43   42   43 1   
    44   42   45 1   
    45   42   50 1   
    46   43   44 2   
    47   43   53 1   
    48   45   46 1   
    49   45   51 1   
    50   45   52 1   
    51   46   47 1   
    52   46   48 1   
    53   53   54 1   
    54   53   57 1   
    55   54   55 1   
    56   54   58 1   
    57   54   59 1   
    58   55   56 2   
    59   55   60 1   
    60   60   61 1   
    61   60   68 1   
    62   61   62 1   
    63   61   64 1   
    64   61   69 1   
    65   62   63 2   
    66   62   74 1   
    67   64   65 1   
    68   64   70 1   
    69   64   71 1   
    70   65   66 1   
    71   65   67 2   
    72   66   72 1   
    73   66   73 1   
    74   74   75 1   
    75   74   78 1   
    76   75   76 1   
    77   75   79 1   
    78   75   80 1   
    79   76   77 2   
    80   76   81 1   
    81   81   82 1   
    82   81   93 1   
    83   82   83 1   
    84   82   85 1   
    85   82   94 1   
    86   83   84 2   
    87   83  102 1   
    88   85   86 1   
    89   85   95 1   
    90   85   96 1   
    91   86   87 ar  
    92   86   88 ar  
    93   87   89 ar  
    94   87   97 1   
    95   88   90 ar  
    96   88   98 1   
    97   89   91 ar  
    98   89   99 1   
    99   90   91 ar  
   100   90  100 1   
   101   91   92 1   
   102   92  101 1   
   103  102  103 1   
   104  102  110 1   
   105  103  104 1   
   106  103  106 1   
   107  103  111 1   
   108  104  105 2   
   109  104  121 1   
   110  106  107 1   
   111  106  108 1   
   112  106  112 1   
   113  107  109 1   
   114  107  113 1   
   115  107  114 1   
   116  108  115 1   
   117  108  116 1   
   118  108  117 1   
   119  109  118 1   
   120  109  119 1   
   121  109  120 1   
   122  121  122 1   
   123  121  127 1   
   124  122  123 1   
   125  122  125 1   
   126  122  128 1   
   127  123  124 2   
   128  123  132 1   
   129  125  126 1   
   130  125  129 1   
   131  125  130 1   
   132  126  131 1   
   133  132  133 1   
   134  132  137 1   
   135  133  134 1   
   136  133  136 1   
   137  133  138 1   
   138  134  135 2   
   139  134  142 1   
   140  136  139 1   
   141  136  140 1   
   142  136  141 1   
   143  142  143 1   
   144  142  147 1   
   145  143  144 1   
   146  143  146 1   
   147  143  148 1   
   148  144  145 2   
   149  144  152 1   
   150  146  149 1   
   151  146  150 1   
   152  146  151 1   
   153  152  153 1   
   154  152  161 1   
   155  153  154 1   
   156  153  156 1   
   157  153  162 1   
   158  154  155 2   
   159  154  167 1   
   160  156  157 1   
   161  156  163 1   
   162  156  164 1   
   163  157  158 1   
   164  157  165 1   
   165  157  166 1   
   166  158  159 1   
   167  158  160 1   
   168  167  168 1   
   169  167  172 1   
   170  168  169 1   
   171  168  170 1   
   172  168  171 1   
   173  174  175 1   
   174  174  176 1   
   175  177  178 1   
   176  177  179 1   
   177  180  181 1   
   178  180  182 1   
   179  183  184 1   
   180  183  185 1   
   181  186  187 1   
   182  186  188 1   
   183  189  190 1   
   184  189  191 1   
@<TRIPOS>SUBSTRUCTURE
     1 MOL         1 TEMP              0 ****  ****    0 ROOT
