@<TRIPOS>MOLECULE
MOL
  189   185     1     0     0
SMALL
resp


@<TRIPOS>ATOM
      1 C1          8.7640    0.9660    2.2430 c3        1 MOL     -0.520137
      2 C2          7.8060    0.4000    1.1900 c         1 MOL      0.799033
      3 O1          6.5720    0.3820    1.3160 o         1 MOL     -0.659588
      4 H1          8.5290    0.5350    3.2160 hc        1 MOL      0.131178
      5 H2          9.7900    0.7160    1.9730 hc        1 MOL      0.131178
      6 H3          8.6540    2.0490    2.2900 hc        1 MOL      0.131178
      7 N1          8.4240   -0.0250    0.0470 n         1 MOL     -0.625352
      8 C3          7.6740   -0.3150   -1.1900 c3        1 MOL     -0.074257
      9 C4          7.1400   -1.7880   -1.2260 c         1 MOL      0.538430
     10 O2          7.1200   -2.4200   -2.2840 o         1 MOL     -0.511149
     11 C5          8.6890   -0.0250   -2.4190 c3        1 MOL     -0.147491
     12 C6          9.1200    1.4250   -2.5910 c         1 MOL      0.662918
     13 O3          8.5310    2.3430   -1.9440 o         1 MOL     -0.630773
     14 O4         10.0040    1.5370   -3.4840 o         1 MOL     -0.630773
     15 H4          9.4340   -0.0520   -0.0790 hn        1 MOL      0.336923
     16 H5          6.8780    0.4320   -1.1940 h1        1 MOL      0.190517
     17 H6          8.2710   -0.4090   -3.3570 hc        1 MOL      0.050981
     18 H7          9.4300   -0.7910   -2.2200 hc        1 MOL      0.050981
     19 N2          6.6200   -2.2910   -0.1100 n         1 MOL     -0.404721
     20 C7          5.9420   -3.5690   -0.0150 c3        1 MOL      0.104849
     21 C8          4.5000   -3.5530   -0.5790 c         1 MOL      0.491174
     22 O5          4.1560   -4.3520   -1.3770 o         1 MOL     -0.522558
     23 C9          5.9660   -4.1240    1.4770 c3        1 MOL     -0.242826
     24 C10         7.2740   -4.0100    2.2400 c3        1 MOL      0.102803
     25 C11         8.2760   -5.0830    1.8380 c3        1 MOL     -0.160178
     26 C12         9.4220   -4.9370    2.8170 c3        1 MOL      0.123404
     27 N3         10.3930   -6.0550    2.6400 n4        1 MOL     -0.345221
     28 H8          6.4370   -1.5930    0.5950 hn        1 MOL      0.280981
     29 H9          6.5080   -4.2550   -0.6550 h1        1 MOL      0.044279
     30 H10         5.6660   -5.1610    1.3620 hc        1 MOL      0.083960
     31 H11         5.2020   -3.5230    1.9630 hc        1 MOL      0.083960
     32 H12         7.0820   -4.1880    3.2950 hc        1 MOL     -0.016414
     33 H13         7.7270   -3.0220    2.1690 hc        1 MOL     -0.016414
     34 H14         8.4720   -4.8910    0.7860 hc        1 MOL      0.074538
     35 H15         7.7670   -6.0350    1.9920 hc        1 MOL      0.074538
     36 H16         9.0620   -4.8590    3.8380 hx        1 MOL      0.064333
     37 H17         9.8970   -3.9990    2.5660 hx        1 MOL      0.064333
     38 H18        10.0210   -6.9130    3.0260 hn        1 MOL      0.318943
     39 H19        10.5840   -6.2280    1.6700 hn        1 MOL      0.318943
     40 H20        11.2680   -5.9290    3.1300 hn        1 MOL      0.318943
     41 N4          3.6430   -2.5140   -0.3070 n         1 MOL     -0.213221
     42 C13         3.5610   -1.6060    0.8250 c3        1 MOL     -0.075497
     43 C14         3.2770   -0.1350    0.3880 c         1 MOL      0.195164
     44 O6          2.9680    0.0810   -0.8300 o         1 MOL     -0.426845
     45 C15         2.4070   -2.0770    1.7710 c3        1 MOL     -0.270644
     46 C16         1.0770   -2.4490    1.0910 c         1 MOL      0.753592
     47 O7          0.8980   -1.9710   -0.0700 o         1 MOL     -0.644020
     48 O8          0.3340   -3.2050    1.6790 o         1 MOL     -0.644020
     49 H21         2.8320   -2.4020   -0.8990 hn        1 MOL      0.270633
     50 H22         4.4840   -1.6380    1.3990 h1        1 MOL      0.123639
     51 H23         2.1530   -1.2440    2.4250 hc        1 MOL      0.049494
     52 H24         2.6990   -2.9380    2.3740 hc        1 MOL      0.049494
     53 N5          3.3930    0.8800    1.2560 n         1 MOL     -0.108937
     54 C17         3.5150    2.2800    0.8750 c3        1 MOL     -0.268744
     55 C18         2.4760    2.8190   -0.0890 c         1 MOL      0.603776
     56 O9          1.2700    2.4310   -0.0780 o         1 MOL     -0.718014
     57 H25         3.5030    0.6310    2.2320 hn        1 MOL      0.252281
     58 H26         4.4100    2.4780    0.2980 h1        1 MOL      0.154201
     59 H27         3.5020    2.9360    1.7380 h1        1 MOL      0.154201
     60 N6          2.7470    3.6530   -1.0400 n         1 MOL     -0.399988
     61 C19         1.9230    4.3310   -1.9860 c3        1 MOL      0.334848
     62 C20         2.0960    5.8450   -1.7400 c         1 MOL      0.391834
     63 O10         3.1400    6.3020   -1.3140 o         1 MOL     -0.506568
     64 C21         2.3360    3.9340   -3.4230 c3        1 MOL     -0.128900
     65 C22         2.0930    2.4850   -3.7920 c         1 MOL      0.571448
     66 O11         1.3060    1.7890   -3.1000 o         1 MOL     -0.628352
     67 O12         2.6660    2.1950   -4.8450 o         1 MOL     -0.628352
     68 H28         3.7380    3.8290   -1.1180 hn        1 MOL      0.250501
     69 H29         0.8950    4.0170   -1.8220 h1        1 MOL     -0.011580
     70 H30         3.3980    4.1850   -3.4750 hc        1 MOL      0.041726
     71 H31         1.7940    4.5860   -4.1060 hc        1 MOL      0.041726
     72 N7          1.0270    6.6790   -1.9400 n         1 MOL     -0.539093
     73 C23        -0.3680    6.2150   -1.9660 c3        1 MOL      0.001452
     74 C24        -0.7870    5.7250   -0.5680 c         1 MOL      0.645445
     75 O13        -0.1030    5.9460    0.4120 o         1 MOL     -0.525766
     76 H32         1.2450    7.5980   -1.5760 hn        1 MOL      0.337446
     77 H33        -0.4370    5.4290   -2.7270 h1        1 MOL      0.061009
     78 H34        -1.0400    7.0310   -2.2500 h1        1 MOL      0.061009
     79 N8         -1.9750    5.1190   -0.3720 n         1 MOL     -0.475134
     80 C25        -2.7080    5.1280    0.9230 c3        1 MOL      0.064430
     81 C26        -2.5050    3.9070    1.7820 c         1 MOL      0.513469
     82 O14        -3.3790    3.5330    2.5590 o         1 MOL     -0.576921
     83 C27        -4.1740    5.4860    0.7720 c3        1 MOL      0.339177
     84 C28        -4.9880    4.5570   -0.1890 c3        1 MOL     -0.280908
     85 O15        -4.1170    6.8340    0.3940 oh        1 MOL     -0.596702
     86 H35        -2.4860    5.0020   -1.2410 hn        1 MOL      0.228250
     87 H36        -2.3600    5.9270    1.5770 h1        1 MOL      0.075299
     88 H37        -4.6120    5.4310    1.7750 h1        1 MOL     -0.008825
     89 H38        -4.8780    7.1060    0.9190 ho        1 MOL      0.374473
     90 H39        -6.0630    4.5520    0.0370 hc        1 MOL      0.075980
     91 H40        -4.9660    4.9990   -1.1820 hc        1 MOL      0.075980
     92 H41        -4.6790    3.5190   -0.2870 hc        1 MOL      0.075980
     93 N9         -1.3420    3.2610    1.8270 n         1 MOL     -0.410046
     94 C29        -0.9270    2.2370    2.8500 c3        1 MOL     -0.056653
     95 C30        -1.2310    0.8430    2.2780 c         1 MOL      0.450656
     96 O16        -0.6980    0.4310    1.2580 o         1 MOL     -0.403941
     97 C31         0.5000    2.2900    3.3290 c3        1 MOL      0.379790
     98 C32         0.9240    3.6710    3.8650 c3        1 MOL      0.049188
     99 C33         0.7290    1.2500    4.4900 c3        1 MOL     -0.471239
    100 C34         0.1740    4.1530    5.1590 c3        1 MOL     -0.181247
    101 H42        -0.6260    3.5070    1.1590 hn        1 MOL      0.335966
    102 H43        -1.4910    2.3630    3.7750 h1        1 MOL      0.035121
    103 H44         1.1410    2.0850    2.4720 hc        1 MOL     -0.143171
    104 H45         0.8010    4.3760    3.0390 hc        1 MOL     -0.013323
    105 H46         1.9850    3.7420    4.1070 hc        1 MOL     -0.013323
    106 H47         1.7830    1.1290    4.7510 hc        1 MOL      0.113605
    107 H48         0.0630    1.4490    5.3290 hc        1 MOL      0.113605
    108 H49         0.3720    0.3480    3.9890 hc        1 MOL      0.113605
    109 H50         0.3460    3.5050    6.0210 hc        1 MOL      0.042646
    110 H51         0.5160    5.1550    5.4270 hc        1 MOL      0.042646
    111 H52        -0.9050    4.2320    5.0150 hc        1 MOL      0.042646
    112 N10        -2.1320    0.0660    2.9500 n         1 MOL     -0.265465
    113 C35        -2.5270   -1.3490    2.5830 c3        1 MOL     -0.446214
    114 C36        -3.9360   -1.4810    2.1170 c         1 MOL      0.727590
    115 O17        -4.3670   -2.5310    1.7240 o         1 MOL     -0.626381
    116 C37        -2.1280   -2.3170    3.6930 c3        1 MOL      0.516011
    117 C38        -2.6560   -1.8210    4.9980 c3        1 MOL     -0.267503
    118 O18        -0.7320   -2.4090    3.8420 oh        1 MOL     -0.615803
    119 H53        -2.5740    0.3420    3.8140 hn        1 MOL      0.296439
    120 H54        -1.9860   -1.6580    1.6910 h1        1 MOL      0.160991
    121 H55        -2.4670   -3.3440    3.6230 h1        1 MOL      0.007034
    122 H56        -0.4530   -2.6440    2.9480 ho        1 MOL      0.355949
    123 H57        -3.6730   -1.4870    4.7750 hc        1 MOL      0.042643
    124 H58        -2.6560   -2.7200    5.6140 hc        1 MOL      0.042643
    125 H59        -2.2160   -0.9170    5.4230 hc        1 MOL      0.042643
    126 N11        -4.7450   -0.4010    2.2020 n         1 MOL     -0.333393
    127 C39        -6.1840   -0.3840    1.8120 c3        1 MOL     -0.089810
    128 C40        -6.3710   -1.0050    0.4250 c         1 MOL      0.372379
    129 O19        -6.1770   -0.3470   -0.6040 o         1 MOL     -0.467809
    130 C41        -6.6650    1.1290    1.8480 c3        1 MOL      0.588941
    131 C42        -8.1210    1.2300    1.9130 c3        1 MOL     -0.463840
    132 O20        -6.1050    1.8190    2.9230 oh        1 MOL     -0.612115
    133 H60        -4.4450    0.4010    2.7220 hn        1 MOL      0.175112
    134 H61        -6.7690   -0.8950    2.5740 h1        1 MOL      0.074824
    135 H62        -6.3210    1.6040    0.9260 h1        1 MOL     -0.068280
    136 H63        -5.7070    2.6510    2.6660 ho        1 MOL      0.370618
    137 H64        -8.5240    0.5550    2.6580 hc        1 MOL      0.101922
    138 H65        -8.3670    2.2810    2.0680 hc        1 MOL      0.101922
    139 H66        -8.5970    0.8220    1.0200 hc        1 MOL      0.101922
    140 N12        -6.9090   -2.2560    0.3370 n         1 MOL     -0.262437
    141 C43        -7.2220   -3.0220   -0.9310 c3        1 MOL      0.117412
    142 C44        -6.0420   -3.0360   -1.9190 c         1 MOL      0.472047
    143 O21        -6.1570   -2.7930   -3.1200 o         1 MOL     -0.488610
    144 C45        -8.5420   -2.5380   -1.5680 c3        1 MOL     -0.233210
    145 C46        -9.7300   -3.1030   -0.7570 c3        1 MOL      0.042983
    146 C47       -11.0230   -2.7020   -1.5090 c3        1 MOL      0.003400
    147 C48       -12.2740   -3.1950   -0.8790 c3        1 MOL      0.083400
    148 N13       -13.3990   -3.0680   -1.7570 n4        1 MOL     -0.209882
    149 H67        -7.2670   -2.6300    1.2000 hn        1 MOL      0.200617
    150 H68        -7.3270   -4.0310   -0.5380 h1        1 MOL      0.043330
    151 H69        -8.5510   -2.9130   -2.5940 hc        1 MOL      0.099671
    152 H70        -8.5920   -1.4480   -1.5670 hc        1 MOL      0.099671
    153 H71        -9.7370   -2.6360    0.2210 hc        1 MOL      0.001463
    154 H72        -9.6490   -4.1910   -0.6860 hc        1 MOL      0.001463
    155 H73       -10.9300   -3.0730   -2.5240 hc        1 MOL      0.022822
    156 H74       -10.9580   -1.6230   -1.5990 hc        1 MOL      0.022822
    157 H75       -12.4500   -2.7170    0.0890 hx        1 MOL      0.046499
    158 H76       -12.2250   -4.2500   -0.5970 hx        1 MOL      0.046499
    159 H77       -13.2820   -3.6300   -2.5820 hn        1 MOL      0.224882
    160 H78       -14.2960   -3.3390   -1.3650 hn        1 MOL      0.224882
    161 H79       -13.5440   -2.0990   -1.9600 hn        1 MOL      0.224882
    162 N14        -4.8250   -3.2580   -1.3930 n         1 MOL     -0.708214
    163 C49        -3.6150   -2.6600   -2.0290 c3        1 MOL      0.554824
    164 C50        -2.4450   -2.5640   -1.0940 c         1 MOL      0.278644
    165 O22        -1.9050   -1.5210   -0.9060 o         1 MOL     -0.538399
    166 C51        -3.0320   -3.4440   -3.2710 c3        1 MOL     -0.361354
    167 C52        -2.5180   -2.4700   -4.3420 c3        1 MOL     -0.221906
    168 C53        -1.1820   -1.7560   -4.1010 c         1 MOL      0.826882
    169 O23        -0.1540   -2.4040   -4.3980 o         1 MOL     -0.723241
    170 O24        -1.0970   -0.6190   -3.6230 o         1 MOL     -0.723241
    171 H80        -4.8110   -3.7420   -0.5100 hn        1 MOL      0.379205
    172 H81        -3.8110   -1.6240   -2.3050 h1        1 MOL      0.034361
    173 H82        -3.7970   -4.0820   -3.6940 hc        1 MOL      0.131055
    174 H83        -2.2320   -4.1580   -3.0670 hc        1 MOL      0.131055
    175 H84        -3.2460   -1.6750   -4.5070 hc        1 MOL      0.049474
    176 H85        -2.3380   -3.1450   -5.1840 hc        1 MOL      0.049474
    177 N15        -1.8640   -3.5450   -0.3830 n         1 MOL     -0.305449
    178 C54        -2.2780   -5.0090   -0.4190 c3        1 MOL     -0.104097
    179 H86        -3.3520   -5.0870   -0.2460 h1        1 MOL      0.052481
    180 H87        -2.0360   -5.4320   -1.3940 h1        1 MOL      0.052481
    181 H88        -1.7450   -5.5570    0.3570 h1        1 MOL      0.052481
    182 H89        -1.0900   -3.3750    0.2440 hn        1 MOL      0.311035
    183 Ca1         0.2790    0.1360   -1.4240 Ca        1 MOL      1.797930
    184 O25         1.7500   -1.5870   -2.7800 oh        1 MOL     -1.073961
    185 H90         2.5980   -1.6600   -3.2060 ho        1 MOL      0.485489
    186 H91         1.1580   -2.1060   -3.3250 ho        1 MOL      0.485489
    187 O26        -1.8240    1.9080   -1.8350 oh        1 MOL     -1.073961
    188 H92        -1.8540    2.7440   -2.2870 ho        1 MOL      0.485489
    189 H93        -2.7440    1.6310   -1.7790 ho        1 MOL      0.485489
@<TRIPOS>BOND
     1    1    2 1   
     2    1    4 1   
     3    1    5 1   
     4    1    6 1   
     5    2    3 2   
     6    2    7 1   
     7    7    8 1   
     8    7   15 1   
     9    8    9 1   
    10    8   11 1   
    11    8   16 1   
    12    9   10 2   
    13    9   19 1   
    14   11   12 1   
    15   11   17 1   
    16   11   18 1   
    17   12   13 1   
    18   12   14 1   
    19   19   20 1   
    20   19   28 1   
    21   20   21 1   
    22   20   23 1   
    23   20   29 1   
    24   21   22 2   
    25   21   41 1   
    26   23   24 1   
    27   23   30 1   
    28   23   31 1   
    29   24   25 1   
    30   24   32 1   
    31   24   33 1   
    32   25   26 1   
    33   25   34 1   
    34   25   35 1   
    35   26   27 1   
    36   26   36 1   
    37   26   37 1   
    38   27   38 1   
    39   27   39 1   
    40   27   40 1   
    41   41   42 1   
    42   41   49 1   
    43   42   43 1   
    44   42   45 1   
    45   42   50 1   
    46   43   44 2   
    47   43   53 1   
    48   45   46 1   
    49   45   51 1   
    50   45   52 1   
    51   46   47 1   
    52   46   48 1   
    53   53   54 1   
    54   53   57 1   
    55   54   55 1   
    56   54   58 1   
    57   54   59 1   
    58   55   56 2   
    59   55   60 1   
    60   60   61 1   
    61   60   68 1   
    62   61   62 1   
    63   61   64 1   
    64   61   69 1   
    65   62   63 2   
    66   62   72 1   
    67   64   65 1   
    68   64   70 1   
    69   64   71 1   
    70   65   66 1   
    71   65   67 1   
    72   72   73 1   
    73   72   76 1   
    74   73   74 1   
    75   73   77 1   
    76   73   78 1   
    77   74   75 2   
    78   74   79 1   
    79   79   80 1   
    80   79   86 1   
    81   80   81 1   
    82   80   83 1   
    83   80   87 1   
    84   81   82 2   
    85   81   93 1   
    86   83   84 1   
    87   83   85 1   
    88   83   88 1   
    89   84   90 1   
    90   84   91 1   
    91   84   92 1   
    92   85   89 1   
    93   93   94 1   
    94   93  101 1   
    95   94   95 1   
    96   94   97 1   
    97   94  102 1   
    98   95   96 2   
    99   95  112 1   
   100   97   98 1   
   101   97   99 1   
   102   97  103 1   
   103   98  100 1   
   104   98  104 1   
   105   98  105 1   
   106   99  106 1   
   107   99  107 1   
   108   99  108 1   
   109  100  109 1   
   110  100  110 1   
   111  100  111 1   
   112  112  113 1   
   113  112  119 1   
   114  113  114 1   
   115  113  116 1   
   116  113  120 1   
   117  114  115 2   
   118  114  126 1   
   119  116  117 1   
   120  116  118 1   
   121  116  121 1   
   122  117  123 1   
   123  117  124 1   
   124  117  125 1   
   125  118  122 1   
   126  126  127 1   
   127  126  133 1   
   128  127  128 1   
   129  127  130 1   
   130  127  134 1   
   131  128  129 2   
   132  128  140 1   
   133  130  131 1   
   134  130  132 1   
   135  130  135 1   
   136  131  137 1   
   137  131  138 1   
   138  131  139 1   
   139  132  136 1   
   140  140  141 1   
   141  140  149 1   
   142  141  142 1   
   143  141  144 1   
   144  141  150 1   
   145  142  143 2   
   146  142  162 1   
   147  144  145 1   
   148  144  151 1   
   149  144  152 1   
   150  145  146 1   
   151  145  153 1   
   152  145  154 1   
   153  146  147 1   
   154  146  155 1   
   155  146  156 1   
   156  147  148 1   
   157  147  157 1   
   158  147  158 1   
   159  148  159 1   
   160  148  160 1   
   161  148  161 1   
   162  162  163 1   
   163  162  171 1   
   164  163  164 1   
   165  163  166 1   
   166  163  172 1   
   167  164  165 2   
   168  164  177 1   
   169  166  167 1   
   170  166  173 1   
   171  166  174 1   
   172  167  168 1   
   173  167  175 1   
   174  167  176 1   
   175  168  169 1   
   176  168  170 1   
   177  177  178 1   
   178  177  182 1   
   179  178  179 1   
   180  178  180 1   
   181  178  181 1   
   182  184  185 1   
   183  184  186 1   
   184  187  188 1   
   185  187  189 1   
@<TRIPOS>SUBSTRUCTURE
     1 MOL         1 TEMP              0 ****  ****    0 ROOT
