@<TRIPOS>MOLECULE
MOL
  192   187     1     0     0
SMALL
resp


@<TRIPOS>ATOM
      1 C1         -3.1970    1.9270   -2.9200 c3        1 MOL     -0.207260
      2 C2         -2.2930    2.3710   -1.6210 c         1 MOL      0.517165
      3 O1         -1.5040    1.5950   -1.0180 o         1 MOL     -0.456885
      4 H1         -2.8900    0.9350   -3.2540 hc        1 MOL      0.044943
      5 H2         -4.2500    1.9050   -2.6410 hc        1 MOL      0.044943
      6 H3         -3.0500    2.6440   -3.7280 hc        1 MOL      0.044943
      7 N1         -2.4390    3.6790   -1.2970 n         1 MOL     -0.472709
      8 C3         -1.7250    4.4490   -0.2470 c3        1 MOL      0.043777
      9 C4         -0.2300    4.6140   -0.4960 c         1 MOL      0.615655
     10 O2          0.6690    4.4440    0.3940 o         1 MOL     -0.553474
     11 C5         -2.1490    4.1860    1.1770 c3        1 MOL     -0.463014
     12 C6         -3.6390    4.3550    1.3530 c         1 MOL      1.045624
     13 O3         -4.2210    5.4070    1.1130 o         1 MOL     -0.873701
     14 O4         -4.2540    3.4930    1.9940 o         1 MOL     -0.873701
     15 H4         -3.1890    4.1710   -1.7720 hn        1 MOL      0.261929
     16 H5         -2.0660    5.4800   -0.3720 h1        1 MOL      0.086141
     17 H6         -1.6540    4.9740    1.7600 hc        1 MOL      0.146116
     18 H7         -1.8570    3.1690    1.4210 hc        1 MOL      0.146116
     19 N2          0.1560    4.8640   -1.7240 n         1 MOL     -0.270509
     20 C7          1.5950    4.9850   -2.1510 c3        1 MOL     -0.624591
     21 C8          2.2360    6.3980   -1.7680 c         1 MOL      0.430446
     22 O5          1.4860    7.3790   -1.6810 o         1 MOL     -0.549904
     23 C9          1.7890    4.5340   -3.6620 c3        1 MOL      0.372204
     24 C10         1.2480    5.5770   -4.6510 c3        1 MOL      0.229222
     25 C11         1.2700    3.0640   -3.7770 c3        1 MOL     -0.112727
     26 C12         1.2640    5.0810   -6.0900 c3        1 MOL     -0.215476
     27 H8         -0.5590    5.2440   -2.3370 hn        1 MOL      0.234628
     28 H9          2.0850    4.2430   -1.5170 h1        1 MOL      0.311322
     29 H10         2.8420    4.3020   -3.8300 hc        1 MOL     -0.013947
     30 H11         1.9110    6.4430   -4.6040 hc        1 MOL     -0.037493
     31 H12         0.2290    5.8200   -4.3520 hc        1 MOL     -0.037493
     32 H13         1.5980    2.4100   -2.9670 hc        1 MOL      0.001210
     33 H14         0.1860    3.1450   -3.8320 hc        1 MOL      0.001210
     34 H15         1.6640    2.6920   -4.7250 hc        1 MOL      0.001210
     35 H16         2.3180    4.9240   -6.3420 hc        1 MOL      0.024684
     36 H17         0.5890    4.2300   -6.1910 hc        1 MOL      0.024684
     37 H18         0.7870    5.9410   -6.5620 hc        1 MOL      0.024684
     38 N3          3.4980    6.3920   -1.3970 n         1 MOL     -0.118749
     39 C13         4.5290    5.4020   -1.5640 c3        1 MOL      0.017330
     40 C14         4.5130    4.1410   -0.6620 c         1 MOL      0.511032
     41 O6          4.7360    3.0590   -1.2300 o         1 MOL     -0.549859
     42 C15         5.9810    5.9800   -1.4700 c3        1 MOL     -0.207645
     43 C16         6.2720    7.3250   -2.2450 c         1 MOL      0.718012
     44 O7          5.5640    8.2940   -2.0250 o         1 MOL     -0.716725
     45 O8          7.0940    7.3610   -3.1950 o         1 MOL     -0.716725
     46 H19         3.7270    7.2270   -0.8690 hn        1 MOL      0.205197
     47 H20         4.4310    5.0990   -2.6020 h1        1 MOL      0.060351
     48 H21         6.6810    5.2070   -1.7910 hc        1 MOL      0.021058
     49 H22         6.1820    6.1710   -0.4130 hc        1 MOL      0.021058
     50 N4          4.0190    4.1820    0.5650 n         1 MOL     -0.466948
     51 C17         3.6710    3.1120    1.4740 c3        1 MOL     -0.106909
     52 C18         4.9310    2.7060    2.2730 c         1 MOL      0.708819
     53 O9          5.7620    3.5240    2.6340 o         1 MOL     -0.500328
     54 H23         3.7820    5.1100    0.8860 hn        1 MOL      0.298974
     55 H24         3.3300    2.2780    0.8570 h1        1 MOL      0.102610
     56 H25         2.8360    3.4830    2.0670 h1        1 MOL      0.102610
     57 N5          5.0800    1.4160    2.5630 n         1 MOL     -0.747010
     58 C19         6.3090    0.8320    3.2050 c3        1 MOL      0.355792
     59 C20         6.9640   -0.2960    2.3750 c         1 MOL      0.486812
     60 O10         7.6970   -1.2070    2.8830 o         1 MOL     -0.588513
     61 C21         6.0070    0.4230    4.6300 c3        1 MOL     -0.347636
     62 C22         5.7120    1.7020    5.4560 c         1 MOL      0.770399
     63 O11         4.5530    1.9790    5.8900 o         1 MOL     -0.706798
     64 O12         6.6430    2.4360    5.6490 o         1 MOL     -0.706798
     65 H26         4.2880    0.7990    2.4390 hn        1 MOL      0.322962
     66 H27         7.0980    1.5810    3.1370 h1        1 MOL      0.056311
     67 H28         6.9010   -0.0170    5.0820 hc        1 MOL      0.040761
     68 H29         5.1890   -0.2950    4.7440 hc        1 MOL      0.040761
     69 N6          6.7560   -0.3200    1.0430 n         1 MOL     -0.348896
     70 C23         7.5310   -0.9550   -0.0420 c3        1 MOL     -0.139804
     71 C24         7.4170   -2.4370   -0.1960 c         1 MOL      0.612355
     72 O13         8.0100   -3.0250   -1.1000 o         1 MOL     -0.584887
     73 H30         6.0160    0.3050    0.7820 hn        1 MOL      0.245484
     74 H31         8.5440   -0.7410    0.2920 h1        1 MOL      0.113619
     75 H32         7.3740   -0.4600   -1.0080 h1        1 MOL      0.113619
     76 N7          6.6210   -2.9800    0.7280 n         1 MOL     -0.402779
     77 C25         6.2900   -4.4670    0.9280 c3        1 MOL      0.351835
     78 C26         5.9160   -5.1640   -0.3850 c         1 MOL      0.333686
     79 O14         6.2620   -6.3150   -0.5810 o         1 MOL     -0.495452
     80 C27         7.3430   -5.1690    1.8100 c3        1 MOL     -0.135026
     81 C28         7.6960   -4.5070    3.1130 c3        1 MOL     -0.199709
     82 C29         8.6630   -5.4630    3.8380 c         1 MOL      0.680187
     83 N8          9.1230   -5.0560    5.0100 n         1 MOL     -0.841856
     84 O15         8.9810   -6.5830    3.3740 o         1 MOL     -0.566337
     85 H33         6.3720   -2.3970    1.5140 hn        1 MOL      0.196985
     86 H34         5.3480   -4.4790    1.4740 h1        1 MOL     -0.015854
     87 H35         8.2720   -5.2720    1.2440 hc        1 MOL      0.055795
     88 H36         6.8830   -6.1380    1.9870 hc        1 MOL      0.055795
     89 H37         6.8530   -4.1050    3.6760 hc        1 MOL      0.090618
     90 H38         8.3310   -3.6500    2.8810 hc        1 MOL      0.090618
     91 H39         8.7230   -4.2310    5.4260 hn        1 MOL      0.370198
     92 H40         9.8920   -5.5240    5.4780 hn        1 MOL      0.370198
     93 N9          5.1540   -4.4610   -1.2230 n         1 MOL     -0.169490
     94 C30         4.5150   -4.9310   -2.5040 c3        1 MOL     -0.223989
     95 C31         2.9920   -4.7250   -2.6950 c         1 MOL      0.632308
     96 O16         2.3920   -5.2250   -3.6510 o         1 MOL     -0.558832
     97 C32         5.2180   -4.3870   -3.8090 c3        1 MOL      0.309771
     98 C33         5.0310   -2.9060   -3.9270 c3        1 MOL     -0.352843
     99 C34         6.7310   -4.5830   -3.9120 c3        1 MOL     -0.352843
    100 H41         4.8210   -3.5710   -0.8850 hn        1 MOL      0.111247
    101 H42         4.7230   -5.9910   -2.4700 h1        1 MOL      0.123034
    102 H43         4.7210   -4.8720   -4.6480 hc        1 MOL     -0.033223
    103 H44         5.3590   -2.5330   -2.9500 hc        1 MOL      0.091487
    104 H45         5.5830   -2.4980   -4.7690 hc        1 MOL      0.091487
    105 H46         3.9790   -2.6670   -4.1010 hc        1 MOL      0.091487
    106 H47         7.1870   -3.9690   -3.1380 hc        1 MOL      0.091487
    107 H48         6.9500   -5.6470   -3.7930 hc        1 MOL      0.091487
    108 H49         7.1560   -4.2770   -4.8700 hc        1 MOL      0.091487
    109 N10         2.4020   -3.8560   -1.8530 n         1 MOL     -0.677593
    110 C35         1.0140   -3.3480   -1.9860 c3        1 MOL      0.511998
    111 C36         0.2040   -3.8900   -0.8800 c         1 MOL      0.554516
    112 O17         0.6860   -4.5050    0.0590 o         1 MOL     -0.550853
    113 C37         1.0590   -1.8170   -1.9110 c3        1 MOL     -0.289456
    114 C38         1.6560   -1.2390   -3.1590 c         1 MOL      0.672323
    115 N11         1.0550   -1.4770   -4.3440 n         1 MOL     -0.834376
    116 O18         2.6920   -0.5770   -3.0710 o         1 MOL     -0.530532
    117 H50         3.0700   -3.4160   -1.2440 hn        1 MOL      0.320499
    118 H51         0.5970   -3.6910   -2.9300 h1        1 MOL     -0.045663
    119 H52         1.6170   -1.6530   -0.9840 hc        1 MOL      0.093419
    120 H53         0.0090   -1.5290   -1.9250 hc        1 MOL      0.093419
    121 H54         0.1100   -1.8590   -4.3170 hn        1 MOL      0.376373
    122 H55         1.3490   -1.0700   -5.2120 hn        1 MOL      0.376373
    123 N12        -1.1120   -3.5980   -0.9210 n         1 MOL     -0.672793
    124 C39        -2.1180   -3.9720    0.1460 c3        1 MOL      0.272222
    125 C40        -3.5920   -3.9950   -0.3500 c         1 MOL      0.560131
    126 O19        -3.8970   -3.2530   -1.2810 o         1 MOL     -0.525837
    127 C41        -1.8780   -3.1370    1.3940 c3        1 MOL      0.012940
    128 C42        -2.8250   -1.8960    1.6730 ca        1 MOL      0.041708
    129 C43        -2.5480   -0.5540    1.2520 ca        1 MOL     -0.221435
    130 C44        -3.8370   -2.0470    2.6940 ca        1 MOL     -0.221435
    131 C45        -3.3940    0.4600    1.6240 ca        1 MOL     -0.110877
    132 C46        -4.5600   -0.9540    3.1870 ca        1 MOL     -0.110877
    133 C47        -4.2910    0.3220    2.6760 ca        1 MOL      0.151438
    134 O20        -5.0460    1.3730    3.1770 oh        1 MOL     -0.552215
    135 H56        -1.4160   -3.0490   -1.7160 hn        1 MOL      0.277516
    136 H57        -1.9370   -4.9770    0.5480 h1        1 MOL      0.031759
    137 H58        -0.8530   -2.7830    1.5030 hc        1 MOL      0.019417
    138 H59        -1.9880   -3.8030    2.2530 hc        1 MOL      0.019417
    139 H60        -1.6970   -0.3100    0.6320 ha        1 MOL      0.129396
    140 H61        -3.9950   -3.0760    2.9900 ha        1 MOL      0.129396
    141 H62        -3.2260    1.4430    1.2240 ha        1 MOL      0.106191
    142 H63        -5.3160   -1.0410    3.9530 ha        1 MOL      0.106191
    143 H64        -4.8260    2.1560    2.6690 ho        1 MOL      0.564075
    144 N13        -4.4590   -4.7180    0.3290 n         1 MOL     -0.776912
    145 C48        -5.8780   -4.9320    0.0550 c3        1 MOL      0.418697
    146 C49        -6.8670   -4.2990    1.0470 c         1 MOL      0.567016
    147 O21        -7.2240   -4.8930    2.0230 o         1 MOL     -0.555583
    148 C50        -6.1440   -6.4270   -0.1720 c3        1 MOL     -0.102750
    149 C51        -7.4880   -6.7280   -0.8010 c3        1 MOL     -0.192603
    150 C52        -8.0160   -8.1480   -0.6690 c         1 MOL      0.770435
    151 O22        -8.5510   -8.5260    0.3670 o         1 MOL     -0.724473
    152 O23        -8.0530   -8.8680   -1.6780 o         1 MOL     -0.724473
    153 H65        -4.1330   -5.1820    1.1740 hn        1 MOL      0.355915
    154 H66        -6.1260   -4.4750   -0.9060 h1        1 MOL      0.052602
    155 H67        -6.0360   -7.0070    0.7490 hc        1 MOL      0.014534
    156 H68        -5.4050   -6.7830   -0.8780 hc        1 MOL      0.014534
    157 H69        -7.4200   -6.5610   -1.8710 hc        1 MOL      0.024307
    158 H70        -8.2060   -6.0250   -0.3710 hc        1 MOL      0.024307
    159 N14        -7.1570   -2.9920    0.9880 n         1 MOL     -0.482360
    160 C53        -6.6800   -1.9970    0.0570 c3        1 MOL     -0.278346
    161 C54        -7.2770   -2.3900   -1.3530 c         1 MOL      0.462628
    162 O24        -8.4330   -2.8180   -1.4510 o         1 MOL     -0.523766
    163 C55        -7.1430   -0.6370    0.5710 c3        1 MOL      0.324943
    164 C56        -6.3870    0.4030   -0.2570 c3        1 MOL     -0.194831
    165 C57        -6.7630    1.7990    0.3030 c         1 MOL      0.619019
    166 O25        -6.1480    2.8040   -0.2010 o         1 MOL     -0.744460
    167 O26        -7.4610    2.0330    1.3570 o         1 MOL     -0.744460
    168 H71        -7.6640   -2.6150    1.7720 hn        1 MOL      0.290367
    169 H72        -5.6070   -2.1360    0.0070 h1        1 MOL      0.058048
    170 H73        -6.9490   -0.4750    1.6240 hc        1 MOL     -0.006028
    171 H74        -8.2120   -0.4600    0.4770 hc        1 MOL     -0.006028
    172 H75        -6.6620    0.2910   -1.3030 hc        1 MOL      0.056948
    173 H76        -5.3130    0.2350   -0.2050 hc        1 MOL      0.056948
    174 N15        -6.5040   -2.2490   -2.4470 n         1 MOL     -0.136724
    175 C58        -6.8300   -2.6460   -3.8050 c3        1 MOL     -0.394768
    176 H77        -7.0280   -3.7180   -3.8320 h1        1 MOL      0.134413
    177 H78        -7.7150   -2.1050   -4.1410 h1        1 MOL      0.134413
    178 H79        -5.9910   -2.4160   -4.4630 h1        1 MOL      0.134413
    179 H80        -5.5230   -2.0740   -2.2750 hn        1 MOL      0.221008
    180 Ca1        -6.7310    4.5940    1.4590 Ca        1 MOL      1.716665
    181 O27        -6.7920    7.0570    2.2860 oh        1 MOL     -0.801644
    182 H81        -6.4370    7.0770    3.1740 ho        1 MOL      0.378947
    183 H82        -7.3660    7.8210    2.2310 ho        1 MOL      0.378947
    184 O28        -8.5590    4.5390    3.3440 oh        1 MOL     -0.801644
    185 H83        -8.8460    5.1750    3.9940 ho        1 MOL      0.378947
    186 H84        -8.6410    3.6910    3.7740 ho        1 MOL      0.378947
    187 O29        -8.9890    4.5490    0.3450 oh        1 MOL     -0.801644
    188 H85        -9.1350    4.5690   -0.6050 ho        1 MOL      0.378947
    189 H86        -9.6000    3.8850    0.6650 ho        1 MOL      0.378947
    190 O30        -5.8600    4.6530    4.0720 oh        1 MOL     -0.801644
    191 H87        -5.5480    4.0470    4.7460 ho        1 MOL      0.378947
    192 H88        -5.6790    5.5180    4.4450 ho        1 MOL      0.378947
@<TRIPOS>BOND
     1    1    2 1   
     2    1    4 1   
     3    1    5 1   
     4    1    6 1   
     5    2    3 2   
     6    2    7 1   
     7    7    8 1   
     8    7   15 1   
     9    8    9 1   
    10    8   11 1   
    11    8   16 1   
    12    9   10 2   
    13    9   19 1   
    14   11   12 1   
    15   11   17 1   
    16   11   18 1   
    17   12   13 1   
    18   12   14 1   
    19   19   20 1   
    20   19   27 1   
    21   20   21 1   
    22   20   23 1   
    23   20   28 1   
    24   21   22 2   
    25   21   38 1   
    26   23   24 1   
    27   23   25 1   
    28   23   29 1   
    29   24   26 1   
    30   24   30 1   
    31   24   31 1   
    32   25   32 1   
    33   25   33 1   
    34   25   34 1   
    35   26   35 1   
    36   26   36 1   
    37   26   37 1   
    38   38   39 1   
    39   38   46 1   
    40   39   40 1   
    41   39   42 1   
    42   39   47 1   
    43   40   41 2   
    44   40   50 1   
    45   42   43 1   
    46   42   48 1   
    47   42   49 1   
    48   43   44 1   
    49   43   45 1   
    50   50   51 1   
    51   50   54 1   
    52   51   52 1   
    53   51   55 1   
    54   51   56 1   
    55   52   53 2   
    56   52   57 1   
    57   57   58 1   
    58   57   65 1   
    59   58   59 1   
    60   58   61 1   
    61   58   66 1   
    62   59   60 2   
    63   59   69 1   
    64   61   62 1   
    65   61   67 1   
    66   61   68 1   
    67   62   63 1   
    68   62   64 1   
    69   69   70 1   
    70   69   73 1   
    71   70   71 1   
    72   70   74 1   
    73   70   75 1   
    74   71   72 2   
    75   71   76 1   
    76   76   77 1   
    77   76   85 1   
    78   77   78 1   
    79   77   80 1   
    80   77   86 1   
    81   78   79 2   
    82   78   93 1   
    83   80   81 1   
    84   80   87 1   
    85   80   88 1   
    86   81   82 1   
    87   81   89 1   
    88   81   90 1   
    89   82   83 1   
    90   82   84 2   
    91   83   91 1   
    92   83   92 1   
    93   93   94 1   
    94   93  100 1   
    95   94   95 1   
    96   94   97 1   
    97   94  101 1   
    98   95   96 2   
    99   95  109 1   
   100   97   98 1   
   101   97   99 1   
   102   97  102 1   
   103   98  103 1   
   104   98  104 1   
   105   98  105 1   
   106   99  106 1   
   107   99  107 1   
   108   99  108 1   
   109  109  110 1   
   110  109  117 1   
   111  110  111 1   
   112  110  113 1   
   113  110  118 1   
   114  111  112 2   
   115  111  123 1   
   116  113  114 1   
   117  113  119 1   
   118  113  120 1   
   119  114  115 1   
   120  114  116 2   
   121  115  121 1   
   122  115  122 1   
   123  123  124 1   
   124  123  135 1   
   125  124  125 1   
   126  124  127 1   
   127  124  136 1   
   128  125  126 2   
   129  125  144 1   
   130  127  128 1   
   131  127  137 1   
   132  127  138 1   
   133  128  129 ar  
   134  128  130 ar  
   135  129  131 ar  
   136  129  139 1   
   137  130  132 ar  
   138  130  140 1   
   139  131  133 ar  
   140  131  141 1   
   141  132  133 ar  
   142  132  142 1   
   143  133  134 1   
   144  134  143 1   
   145  144  145 1   
   146  144  153 1   
   147  145  146 1   
   148  145  148 1   
   149  145  154 1   
   150  146  147 2   
   151  146  159 1   
   152  148  149 1   
   153  148  155 1   
   154  148  156 1   
   155  149  150 1   
   156  149  157 1   
   157  149  158 1   
   158  150  151 1   
   159  150  152 1   
   160  159  160 1   
   161  159  168 1   
   162  160  161 1   
   163  160  163 1   
   164  160  169 1   
   165  161  162 2   
   166  161  174 1   
   167  163  164 1   
   168  163  170 1   
   169  163  171 1   
   170  164  165 1   
   171  164  172 1   
   172  164  173 1   
   173  165  166 1   
   174  165  167 1   
   175  174  175 1   
   176  174  179 1   
   177  175  176 1   
   178  175  177 1   
   179  175  178 1   
   180  181  182 1   
   181  181  183 1   
   182  184  185 1   
   183  184  186 1   
   184  187  188 1   
   185  187  189 1   
   186  190  191 1   
   187  190  192 1   
@<TRIPOS>SUBSTRUCTURE
     1 MOL         1 TEMP              0 ****  ****    0 ROOT
