@<TRIPOS>MOLECULE
MOL
  181   177     1     0     0
SMALL
resp


@<TRIPOS>ATOM
      1 C1         -5.3640    7.8330    1.7280 c3        1 MOL     -0.290453
      2 C2         -4.6100    6.8150    0.8470 c         1 MOL      0.584794
      3 O1         -3.8060    7.2000    0.0300 o         1 MOL     -0.550130
      4 H1         -5.9140    7.3020    2.5060 hc        1 MOL      0.078059
      5 H2         -4.6490    8.5140    2.1910 hc        1 MOL      0.078059
      6 H3         -6.0620    8.4000    1.1130 hc        1 MOL      0.078059
      7 N1         -4.7970    5.4800    1.0160 n         1 MOL     -0.389334
      8 C3         -5.8180    4.8440    1.8100 c3        1 MOL      0.123392
      9 C4         -7.1540    4.6100    1.0610 c         1 MOL      0.438719
     10 O2         -8.1530    4.4540    1.7370 o         1 MOL     -0.564011
     11 C5         -5.2570    3.5150    2.4160 c3        1 MOL     -0.404220
     12 C6         -4.7060    2.5420    1.3870 c         1 MOL      0.910381
     13 O3         -3.4840    2.4340    1.1370 o         1 MOL     -0.784317
     14 O4         -5.5420    1.8730    0.6940 o         1 MOL     -0.784317
     15 H4         -4.1310    4.8420    0.5980 hn        1 MOL      0.254918
     16 H5         -6.0630    5.3840    2.7270 h1        1 MOL      0.090510
     17 H6         -5.9900    2.9450    2.9890 hc        1 MOL      0.108736
     18 H7         -4.4000    3.7800    3.0450 hc        1 MOL      0.108736
     19 N2         -7.2500    4.6950   -0.2580 n         1 MOL     -0.361317
     20 C7         -8.4560    4.5500   -1.0080 c3        1 MOL      0.358118
     21 C8         -8.7990    3.1060   -1.3500 c         1 MOL      0.395165
     22 O5         -9.7680    3.0120   -2.1340 o         1 MOL     -0.579329
     23 C9         -8.4080    5.5760   -2.1440 c3        1 MOL     -0.410923
     24 H8         -6.4480    4.8940   -0.8350 hn        1 MOL      0.197636
     25 H9         -9.2780    4.8500   -0.3480 h1        1 MOL      0.023241
     26 H10        -8.4650    6.5570   -1.6730 hc        1 MOL      0.106157
     27 H11        -7.5450    5.4320   -2.7990 hc        1 MOL      0.106157
     28 H12        -9.2830    5.3920   -2.7660 hc        1 MOL      0.106157
     29 N3         -8.1410    2.1290   -0.8700 n         1 MOL     -0.212128
     30 C10        -8.5230    0.7280   -1.0440 c3        1 MOL      0.094626
     31 C11        -8.6210   -0.0650    0.1730 c         1 MOL      0.405149
     32 O6         -9.4310   -0.9420    0.2960 o         1 MOL     -0.560365
     33 C12        -7.7080   -0.0190   -2.1090 c3        1 MOL     -0.184934
     34 C13        -6.2110    0.1010   -1.8470 c         1 MOL      0.732167
     35 O7         -5.4710    1.0230   -2.3040 o         1 MOL     -0.740558
     36 O8         -5.6710   -0.7800   -1.0790 o         1 MOL     -0.740558
     37 H13        -7.3310    2.2710   -0.2960 hn        1 MOL      0.103485
     38 H14        -9.5310    0.7180   -1.4660 h1        1 MOL      0.077593
     39 H15        -7.8150    0.4420   -3.0910 hc        1 MOL      0.053387
     40 H16        -7.9850   -1.0690   -2.0230 hc        1 MOL      0.053387
     41 N4         -7.7600    0.1310    1.1440 n         1 MOL     -0.182949
     42 C14        -7.6910   -0.6010    2.4250 c3        1 MOL     -0.274385
     43 C15        -7.1440   -2.0540    2.3660 c         1 MOL      0.515537
     44 O9         -6.8830   -2.6190    3.3950 o         1 MOL     -0.548714
     45 H17        -7.0700    0.8550    1.0030 hn        1 MOL      0.230110
     46 H18        -8.6560   -0.5600    2.9130 h1        1 MOL      0.136308
     47 H19        -7.0690   -0.0010    3.0940 h1        1 MOL      0.136308
     48 N5         -6.8960   -2.6240    1.1820 n         1 MOL     -0.253896
     49 C16        -6.7070   -4.0990    1.0700 c3        1 MOL     -0.023595
     50 C17        -5.4340   -4.4850    0.3110 c         1 MOL      0.482160
     51 O10        -5.3410   -5.6480   -0.1110 o         1 MOL     -0.525351
     52 C18        -8.0830   -4.5810    0.4400 c3        1 MOL     -0.204110
     53 C19        -9.1780   -4.6670    1.4200 c         1 MOL      0.698014
     54 N6        -10.0390   -3.6870    1.4390 n         1 MOL     -0.785503
     55 O11        -9.3390   -5.6330    2.1290 o         1 MOL     -0.593591
     56 H20        -7.1080   -2.1090    0.3350 hn        1 MOL      0.303570
     57 H21        -6.4850   -4.5320    2.0490 h1        1 MOL      0.120387
     58 H22        -7.9110   -5.5590    0.0060 hc        1 MOL      0.071044
     59 H23        -8.3860   -3.9940   -0.4260 hc        1 MOL      0.071044
     60 H24        -9.9350   -2.8410    0.8950 hn        1 MOL      0.345795
     61 H25       -10.4450   -3.5640    2.3560 hn        1 MOL      0.345795
     62 N7         -4.4870   -3.5150    0.0050 n         1 MOL     -0.260532
     63 C20        -3.1900   -3.9800   -0.5530 c3        1 MOL     -0.042536
     64 C21        -2.4010   -2.8640   -1.2890 c         1 MOL      0.748309
     65 O12        -2.8260   -1.7080   -1.3640 o         1 MOL     -0.667847
     66 H26        -4.6460   -2.5160    0.1080 hn        1 MOL      0.070813
     67 H27        -3.2990   -4.8900   -1.1500 h1        1 MOL      0.094866
     68 H28        -2.5360   -4.3180    0.2670 h1        1 MOL      0.094866
     69 N8         -1.2780   -3.1740   -1.9500 n         1 MOL     -0.706344
     70 C22        -0.4530   -4.3240   -1.8080 c3        1 MOL      0.211228
     71 C23         0.8730   -4.0680   -1.1150 c         1 MOL      0.392015
     72 O13         1.4630   -4.7150   -0.2330 o         1 MOL     -0.540565
     73 C24        -0.2080   -4.9890   -3.1500 c3        1 MOL      0.301321
     74 C25         0.6640   -6.2340   -2.9830 c3        1 MOL     -0.332598
     75 O14        -1.4270   -5.4040   -3.7340 oh        1 MOL     -0.646851
     76 H29        -1.0460   -2.4250   -2.5880 hn        1 MOL      0.364949
     77 H30        -0.9220   -5.0530   -1.1380 h1        1 MOL      0.065229
     78 H31         0.1650   -4.2370   -3.8260 h1        1 MOL      0.008659
     79 H32        -1.2910   -5.5490   -4.6730 ho        1 MOL      0.403585
     80 H33         1.6560   -5.9150   -2.6580 hc        1 MOL      0.086973
     81 H34         0.2600   -7.0110   -2.3190 hc        1 MOL      0.086973
     82 H35         0.7190   -6.6380   -3.9890 hc        1 MOL      0.086973
     83 N9          1.3570   -2.8260   -1.2910 n         1 MOL     -0.319757
     84 C26         2.4960   -2.2670   -0.5930 c3        1 MOL      0.262812
     85 C27         2.2670   -0.7630   -0.3330 c         1 MOL      0.124996
     86 O15         1.6470   -0.1270   -1.2070 o         1 MOL     -0.443257
     87 C28         3.7480   -2.5790   -1.3890 c3        1 MOL      0.196783
     88 C29         3.6940   -2.2970   -2.9010 c3        1 MOL      0.123343
     89 C30         4.2340   -4.0060   -1.1210 c3        1 MOL     -0.397306
     90 C31         4.9730   -2.1720   -3.6320 c3        1 MOL     -0.223057
     91 H36         0.8520   -2.1680   -1.8720 hn        1 MOL      0.133071
     92 H37         2.6220   -2.8380    0.3280 h1        1 MOL      0.105216
     93 H38         4.5140   -1.9260   -0.9700 hc        1 MOL      0.016176
     94 H39         3.2120   -1.3290   -2.9880 hc        1 MOL     -0.036483
     95 H40         3.1240   -3.0290   -3.4580 hc        1 MOL     -0.036483
     96 H41         5.3040   -3.9280   -1.3410 hc        1 MOL      0.079264
     97 H42         4.0620   -4.2950   -0.0880 hc        1 MOL      0.079264
     98 H43         3.7690   -4.7460   -1.7750 hc        1 MOL      0.079264
     99 H44         5.7350   -1.6470   -3.0560 hc        1 MOL      0.042785
    100 H45         5.4410   -3.1320   -3.8810 hc        1 MOL      0.042785
    101 H46         4.9170   -1.5760   -4.5530 hc        1 MOL      0.042785
    102 N10         2.8370   -0.1610    0.6980 n         1 MOL     -0.200194
    103 C32         3.7290   -0.7860    1.6550 c3        1 MOL      0.227575
    104 C33         5.1800   -0.3980    1.3010 c         1 MOL      0.296570
    105 O16         5.4550    0.8340    1.0870 o         1 MOL     -0.507531
    106 C34         3.3360   -0.3520    3.0710 c3        1 MOL     -0.458876
    107 C35         1.9680   -0.9600    3.5360 c         1 MOL      0.668217
    108 O17         1.3290   -0.4850    4.5360 o         1 MOL     -0.690072
    109 O18         1.6400   -1.9490    2.8480 o         1 MOL     -0.690072
    110 H47         2.5680    0.8120    0.8130 hn        1 MOL      0.285484
    111 H48         3.6990   -1.8690    1.6110 h1        1 MOL      0.015293
    112 H49         3.2160    0.7300    3.0410 hc        1 MOL      0.128329
    113 H50         4.0890   -0.6560    3.8020 hc        1 MOL      0.128329
    114 N11         6.1550   -1.2750    1.3710 n         1 MOL     -0.229071
    115 C36         7.6170   -0.9380    1.4100 c3        1 MOL      0.271278
    116 C37         8.3330   -1.5490    0.1540 c         1 MOL      0.160215
    117 O19         7.8310   -2.5760   -0.3750 o         1 MOL     -0.500295
    118 C38         8.3100   -1.6360    2.6430 c3        1 MOL     -0.147854
    119 C39         8.1340   -0.8450    3.9780 ca        1 MOL      0.147194
    120 C40         9.2980   -0.3820    4.7030 ca        1 MOL     -0.184711
    121 C41         6.9120   -0.7620    4.6590 ca        1 MOL     -0.184711
    122 C42         9.1860    0.2700    5.8970 ca        1 MOL     -0.089477
    123 C43         6.7640   -0.0560    5.8880 ca        1 MOL     -0.089477
    124 C44         7.8890    0.5510    6.4440 ca        1 MOL     -0.146289
    125 H51         5.8750   -2.2080    1.6250 hn        1 MOL      0.215608
    126 H52         7.7530    0.1500    1.4380 h1        1 MOL      0.036155
    127 H53         9.3810   -1.5440    2.4440 hc        1 MOL      0.051549
    128 H54         8.0180   -2.6680    2.7810 hc        1 MOL      0.051549
    129 H55        10.3070   -0.4400    4.3470 ha        1 MOL      0.093136
    130 H56         6.0520   -1.1880    4.1700 ha        1 MOL      0.093136
    131 H57        10.0090    0.7120    6.4410 ha        1 MOL      0.102378
    132 H58         5.8020    0.1110    6.3380 ha        1 MOL      0.102378
    133 H59         7.7030    1.2030    7.2790 ha        1 MOL      0.114691
    134 N12         9.3980   -0.9340   -0.3310 n         1 MOL      0.140488
    135 C45        10.0950    0.2390    0.2060 c3        1 MOL      0.043386
    136 C46         9.4570    1.5460   -0.2550 c         1 MOL      0.510955
    137 O20         9.5340    2.4090    0.5840 o         1 MOL     -0.561398
    138 C47        11.4910    0.2080   -0.3410 c3        1 MOL     -0.213142
    139 C48        11.3110   -0.6490   -1.6270 c3        1 MOL      0.110287
    140 C49        10.1280   -1.5610   -1.3680 c3        1 MOL     -0.308394
    141 H60        10.1450    0.2260    1.2890 h1        1 MOL      0.042113
    142 H61        11.9380    1.1890   -0.4910 hc        1 MOL      0.069602
    143 H62        12.0520   -0.3950    0.3730 hc        1 MOL      0.069602
    144 H63        11.2110   -0.0100   -2.5060 hc        1 MOL      0.004462
    145 H64        12.2370   -1.1970   -1.7690 hc        1 MOL      0.004462
    146 H65         9.4710   -1.5660   -2.2380 h1        1 MOL      0.113768
    147 H66        10.4280   -2.5550   -1.0370 h1        1 MOL      0.113768
    148 N13         8.8200    1.6610   -1.4080 n         1 MOL     -0.579937
    149 C50         8.1750    2.9780   -1.7250 c3        1 MOL      0.320933
    150 C51         9.1950    3.9100   -2.3750 c         1 MOL      0.367397
    151 O21         9.4190    3.6800   -3.5760 o         1 MOL     -0.555084
    152 C52         6.9790    2.7490   -2.6310 c3        1 MOL     -0.069337
    153 C53         5.7710    1.8670   -2.1020 c3        1 MOL     -0.105688
    154 C54         4.5310    2.0090   -3.0180 c         1 MOL      0.794994
    155 O22         4.5240    1.5260   -4.1850 o         1 MOL     -0.747380
    156 O23         3.5370    2.6920   -2.6250 o         1 MOL     -0.747380
    157 H67         8.9110    0.9140   -2.0870 hn        1 MOL      0.374571
    158 H68         7.8270    3.4890   -0.8240 h1        1 MOL      0.081772
    159 H69         7.2250    2.2850   -3.5870 hc        1 MOL      0.009222
    160 H70         6.6280    3.7570   -2.8510 hc        1 MOL      0.009222
    161 H71         5.5110    2.2730   -1.1270 hc        1 MOL     -0.034099
    162 H72         6.0770    0.8270   -2.0140 hc        1 MOL     -0.034099
    163 N14         9.9110    4.8390   -1.7190 n         1 MOL     -0.324727
    164 C55         9.6460    5.4410   -0.3890 c3        1 MOL     -0.047013
    165 H73         8.9240    4.8270    0.1500 h1        1 MOL      0.049577
    166 H74        10.5750    5.4910    0.1790 h1        1 MOL      0.049577
    167 H75         9.2430    6.4460   -0.5180 h1        1 MOL      0.049577
    168 H76        10.5520    5.4090   -2.2490 hn        1 MOL      0.260384
    169 Ca1        -3.4640    0.7350   -0.6970 Ca        1 MOL      1.755870
    170 O24        -0.8190    0.5570   -0.0970 oh        1 MOL     -0.794302
    171 H77        -0.6550    0.6410    0.8400 ho        1 MOL      0.402863
    172 H78        -0.0200    0.1630   -0.4410 ho        1 MOL      0.402863
    173 O25        -2.5510    0.4880   -3.3000 oh        1 MOL     -0.794302
    174 H79        -3.0110    0.3210   -4.1270 ho        1 MOL      0.402863
    175 H80        -1.8020   -0.1050   -3.3280 ho        1 MOL      0.402863
    176 O26        -2.9950   -0.6570    1.5950 oh        1 MOL     -0.794302
    177 H81        -2.3570   -1.3530    1.7380 ho        1 MOL      0.402863
    178 H82        -3.1500   -0.2820    2.4550 ho        1 MOL      0.402863
    179 O27        -2.7150    3.0650   -1.7620 oh        1 MOL     -0.794302
    180 H83        -3.3740    3.7410   -1.9590 ho        1 MOL      0.402863
    181 H84        -2.0230    3.2150   -2.4070 ho        1 MOL      0.402863
@<TRIPOS>BOND
     1    1    2 1   
     2    1    4 1   
     3    1    5 1   
     4    1    6 1   
     5    2    3 2   
     6    2    7 1   
     7    7    8 1   
     8    7   15 1   
     9    8    9 1   
    10    8   11 1   
    11    8   16 1   
    12    9   10 2   
    13    9   19 1   
    14   11   12 1   
    15   11   17 1   
    16   11   18 1   
    17   12   13 1   
    18   12   14 1   
    19   19   20 1   
    20   19   24 1   
    21   20   21 1   
    22   20   23 1   
    23   20   25 1   
    24   21   22 2   
    25   21   29 1   
    26   23   26 1   
    27   23   27 1   
    28   23   28 1   
    29   29   30 1   
    30   29   37 1   
    31   30   31 1   
    32   30   33 1   
    33   30   38 1   
    34   31   32 2   
    35   31   41 1   
    36   33   34 1   
    37   33   39 1   
    38   33   40 1   
    39   34   35 1   
    40   34   36 1   
    41   41   42 1   
    42   41   45 1   
    43   42   43 1   
    44   42   46 1   
    45   42   47 1   
    46   43   44 2   
    47   43   48 1   
    48   48   49 1   
    49   48   56 1   
    50   49   50 1   
    51   49   52 1   
    52   49   57 1   
    53   50   51 2   
    54   50   62 1   
    55   52   53 1   
    56   52   58 1   
    57   52   59 1   
    58   53   54 1   
    59   53   55 2   
    60   54   60 1   
    61   54   61 1   
    62   62   63 1   
    63   62   66 1   
    64   63   64 1   
    65   63   67 1   
    66   63   68 1   
    67   64   65 2   
    68   64   69 1   
    69   69   70 1   
    70   69   76 1   
    71   70   71 1   
    72   70   73 1   
    73   70   77 1   
    74   71   72 2   
    75   71   83 1   
    76   73   74 1   
    77   73   75 1   
    78   73   78 1   
    79   74   80 1   
    80   74   81 1   
    81   74   82 1   
    82   75   79 1   
    83   83   84 1   
    84   83   91 1   
    85   84   85 1   
    86   84   87 1   
    87   84   92 1   
    88   85   86 2   
    89   85  102 1   
    90   87   88 1   
    91   87   89 1   
    92   87   93 1   
    93   88   90 1   
    94   88   94 1   
    95   88   95 1   
    96   89   96 1   
    97   89   97 1   
    98   89   98 1   
    99   90   99 1   
   100   90  100 1   
   101   90  101 1   
   102  102  103 1   
   103  102  110 1   
   104  103  104 1   
   105  103  106 1   
   106  103  111 1   
   107  104  105 2   
   108  104  114 1   
   109  106  107 1   
   110  106  112 1   
   111  106  113 1   
   112  107  108 1   
   113  107  109 1   
   114  114  115 1   
   115  114  125 1   
   116  115  116 1   
   117  115  118 1   
   118  115  126 1   
   119  116  117 2   
   120  116  134 1   
   121  118  119 1   
   122  118  127 1   
   123  118  128 1   
   124  119  120 ar  
   125  119  121 ar  
   126  120  122 ar  
   127  120  129 1   
   128  121  123 ar  
   129  121  130 1   
   130  122  124 ar  
   131  122  131 1   
   132  123  124 ar  
   133  123  132 1   
   134  124  133 1   
   135  134  135 1   
   136  134  140 1   
   137  135  136 1   
   138  135  138 1   
   139  135  141 1   
   140  136  137 2   
   141  136  148 1   
   142  138  139 1   
   143  138  142 1   
   144  138  143 1   
   145  139  140 1   
   146  139  144 1   
   147  139  145 1   
   148  140  146 1   
   149  140  147 1   
   150  148  149 1   
   151  148  157 1   
   152  149  150 1   
   153  149  152 1   
   154  149  158 1   
   155  150  151 2   
   156  150  163 1   
   157  152  153 1   
   158  152  159 1   
   159  152  160 1   
   160  153  154 1   
   161  153  161 1   
   162  153  162 1   
   163  154  155 1   
   164  154  156 1   
   165  163  164 1   
   166  163  168 1   
   167  164  165 1   
   168  164  166 1   
   169  164  167 1   
   170  170  171 1   
   171  170  172 1   
   172  173  174 1   
   173  173  175 1   
   174  176  177 1   
   175  176  178 1   
   176  179  180 1   
   177  179  181 1   
@<TRIPOS>SUBSTRUCTURE
     1 MOL         1 TEMP              0 ****  ****    0 ROOT
