@<TRIPOS>MOLECULE
MOL
  181   177     1     0     0
SMALL
resp


@<TRIPOS>ATOM
      1 C1          6.2480   -5.3200    5.0750 c3        1 MOL     -0.390309
      2 C2          5.8070   -4.1810    4.1880 c         1 MOL      0.714809
      3 O1          5.0840   -3.3170    4.5920 o         1 MOL     -0.540892
      4 H1          5.7570   -6.2390    4.7560 hc        1 MOL      0.091731
      5 H2          7.3280   -5.4410    5.0020 hc        1 MOL      0.091731
      6 H3          5.9750   -5.1040    6.1080 hc        1 MOL      0.091731
      7 N1          6.1560   -4.1370    2.8750 n         1 MOL     -0.416549
      8 C3          7.4060   -4.6670    2.3010 c3        1 MOL     -0.020062
      9 C4          7.2900   -5.1690    0.8640 c         1 MOL      0.580215
     10 O2          6.1840   -5.3440    0.4450 o         1 MOL     -0.505642
     11 C5          8.5310   -3.6300    2.3850 c3        1 MOL     -0.047174
     12 C6          8.3640   -2.3300    1.6200 c         1 MOL      0.671282
     13 O3          8.5960   -2.2710    0.4030 o         1 MOL     -0.710476
     14 O4          8.1490   -1.2590    2.3080 o         1 MOL     -0.710476
     15 H4          5.4870   -3.7890    2.2060 hn        1 MOL      0.273153
     16 H5          7.7280   -5.5040    2.9280 h1        1 MOL      0.032299
     17 H6          9.4550   -4.0610    2.0150 hc        1 MOL     -0.006833
     18 H7          8.6820   -3.4250    3.4440 hc        1 MOL     -0.006833
     19 N2          8.3270   -5.5030    0.1320 n         1 MOL     -0.562837
     20 C7          8.1470   -5.9060   -1.2850 c3        1 MOL      0.381402
     21 C8          7.4290   -4.9080   -2.2310 c         1 MOL      0.370195
     22 O5          6.8290   -5.3000   -3.2470 o         1 MOL     -0.526297
     23 C9          7.6960   -7.3120   -1.3460 c3        1 MOL     -0.345839
     24 H8          9.2320   -5.3660    0.5770 hn        1 MOL      0.284082
     25 H9          9.1270   -5.9910   -1.7610 h1        1 MOL     -0.000969
     26 H10         8.2630   -7.9430   -0.6690 hc        1 MOL      0.086811
     27 H11         6.6860   -7.5560   -1.0030 hc        1 MOL      0.086811
     28 H12         7.8110   -7.7060   -2.3610 hc        1 MOL      0.086811
     29 N3          7.3250   -3.6090   -1.9040 n         1 MOL     -0.295906
     30 C10         6.2460   -2.7620   -2.5250 c3        1 MOL      0.011247
     31 C11         6.5620   -1.3240   -2.7510 c         1 MOL      0.513124
     32 O6          7.6500   -0.8800   -2.4710 o         1 MOL     -0.539874
     33 C12         4.9900   -2.9490   -1.6990 c3        1 MOL     -0.342203
     34 C13         5.0520   -2.4480   -0.3020 c         1 MOL      0.701944
     35 O7          5.7550   -1.4260   -0.1060 o         1 MOL     -0.651581
     36 O8          4.1920   -2.8130    0.5140 o         1 MOL     -0.651581
     37 H13         7.8280   -3.1650   -1.1510 hn        1 MOL      0.145971
     38 H14         6.0110   -3.1540   -3.5210 h1        1 MOL      0.080172
     39 H15         4.7050   -4.0010   -1.7350 hc        1 MOL      0.127967
     40 H16         4.1980   -2.3780   -2.1930 hc        1 MOL      0.127967
     41 N4          5.5400   -0.5090   -3.2120 n         1 MOL     -0.413976
     42 C14         5.6280    0.9080   -3.5170 c3        1 MOL     -0.178883
     43 C15         5.5720    1.8480   -2.3390 c         1 MOL      0.934542
     44 O9          5.9010    1.4130   -1.2420 o         1 MOL     -0.705785
     45 H17         4.6880   -0.9520   -3.5280 hn        1 MOL      0.300579
     46 H18         4.8070    1.2020   -4.1600 h1        1 MOL      0.097276
     47 H19         6.5130    1.1380   -4.1230 h1        1 MOL      0.097276
     48 N5          5.1670    3.0790   -2.5620 n         1 MOL     -0.876022
     49 C16         5.0250    4.1600   -1.5800 c3        1 MOL      0.336871
     50 C17         3.7310    4.0310   -0.7420 c         1 MOL      0.611410
     51 O10         2.7500    3.3570   -1.0920 o         1 MOL     -0.484906
     52 C18         5.1450    5.5490   -2.2930 c3        1 MOL     -0.302879
     53 C19         6.5720    5.8140   -2.6760 c         1 MOL      0.687801
     54 N6          7.3400    6.0530   -1.6230 n         1 MOL     -0.732668
     55 O11         6.9590    5.8670   -3.8530 o         1 MOL     -0.561798
     56 H20         4.8300    3.3290   -3.4870 hn        1 MOL      0.379352
     57 H21         5.8200    4.0930   -0.8320 h1        1 MOL     -0.063274
     58 H22         4.8110    6.2670   -1.5470 hc        1 MOL      0.102131
     59 H23         4.6130    5.5230   -3.2430 hc        1 MOL      0.102131
     60 H24         6.9310    6.1580   -0.7060 hn        1 MOL      0.320838
     61 H25         8.2980    6.2540   -1.8580 hn        1 MOL      0.320838
     62 N7          3.7280    4.6860    0.4040 n         1 MOL     -0.502222
     63 C20         2.5820    5.0840    1.1820 c3        1 MOL     -0.043954
     64 C21         1.6690    6.1310    0.4520 c         1 MOL      0.662943
     65 O12         2.1230    6.7550   -0.4780 o         1 MOL     -0.603358
     66 H26         4.5630    5.1920    0.6460 hn        1 MOL      0.281567
     67 H27         2.9330    5.6220    2.0650 h1        1 MOL      0.071474
     68 H28         1.9510    4.2280    1.4030 h1        1 MOL      0.071474
     69 N8          0.4240    6.3350    0.8160 n         1 MOL     -0.546155
     70 C22        -0.3950    5.5060    1.7920 c3        1 MOL      0.122048
     71 C23        -1.3080    4.5520    0.9580 c         1 MOL      0.560200
     72 O13        -1.6570    4.8690   -0.1550 o         1 MOL     -0.550172
     73 C24        -1.4260    6.3120    2.6410 c3        1 MOL      0.307433
     74 C25        -2.1730    5.4710    3.7250 c3        1 MOL     -0.376904
     75 O14        -0.7500    7.4050    3.2270 oh        1 MOL     -0.674277
     76 H29        -0.0770    7.1350    0.4560 hn        1 MOL      0.339041
     77 H30         0.3060    4.9990    2.4530 h1        1 MOL      0.015119
     78 H31        -2.1350    6.7710    1.9480 h1        1 MOL      0.032163
     79 H32        -1.2630    7.7200    3.9760 ho        1 MOL      0.404474
     80 H33        -2.7680    4.6430    3.3280 hc        1 MOL      0.108601
     81 H34        -1.4070    5.0240    4.3570 hc        1 MOL      0.108601
     82 H35        -2.7840    6.0780    4.3840 hc        1 MOL      0.108601
     83 N9         -1.6360    3.3800    1.4930 n         1 MOL     -0.480332
     84 C26        -2.4660    2.4100    0.8250 c3        1 MOL      0.014848
     85 C27        -3.5240    1.8700    1.8190 c         1 MOL      0.333724
     86 O15        -3.2300    1.6860    2.9940 o         1 MOL     -0.572939
     87 C28        -1.6480    1.2530    0.1440 c3        1 MOL      0.361724
     88 C29        -0.7610    0.5780    1.1530 c3        1 MOL     -0.104391
     89 C30        -0.8580    1.7270   -1.0690 c3        1 MOL     -0.311390
     90 C31        -0.1560   -0.6970    0.8010 c3        1 MOL     -0.108832
     91 H36        -1.3140    3.0980    2.4090 hn        1 MOL      0.230408
     92 H37        -2.9650    3.0570    0.1050 h1        1 MOL      0.099293
     93 H38        -2.3420    0.5420   -0.3070 hc        1 MOL     -0.056904
     94 H39        -1.3660    0.3510    2.0310 hc        1 MOL      0.028529
     95 H40         0.1340    1.1530    1.3690 hc        1 MOL      0.028529
     96 H41        -1.5620    2.0360   -1.8360 hc        1 MOL      0.065007
     97 H42        -0.1830    2.5360   -0.8020 hc        1 MOL      0.065007
     98 H43        -0.3610    0.9470   -1.6470 hc        1 MOL      0.065007
     99 H44         0.6490   -0.9530    1.5010 hc        1 MOL      0.030521
    100 H45        -0.8090   -1.5730    0.8720 hc        1 MOL      0.030521
    101 H46         0.3260   -0.6710   -0.1810 hc        1 MOL      0.030521
    102 N10        -4.7220    1.6780    1.4380 n         1 MOL     -0.101670
    103 C32        -5.4800    2.0430    0.2250 c3        1 MOL      0.324293
    104 C33        -6.6710    1.1010    0.1210 c         1 MOL      0.431454
    105 O16        -7.1080    0.5800    1.1380 o         1 MOL     -0.490717
    106 C34        -5.9530    3.5040    0.2590 c3        1 MOL     -0.160023
    107 C35        -6.5640    4.0810    1.5390 c         1 MOL      0.702360
    108 O17        -6.6730    5.3110    1.5950 o         1 MOL     -0.694158
    109 O18        -6.8240    3.3630    2.5360 o         1 MOL     -0.694158
    110 H47        -5.2000    1.0630    2.0770 hn        1 MOL      0.200538
    111 H48        -4.8150    1.8940   -0.6230 h1        1 MOL     -0.070557
    112 H49        -6.7010    3.5990   -0.5370 hc        1 MOL     -0.014144
    113 H50        -5.1100    4.1090   -0.0750 hc        1 MOL     -0.014144
    114 N11        -7.2170    0.9070   -1.1050 n         1 MOL     -0.508467
    115 C36        -8.3710    0.0360   -1.3850 c3        1 MOL      0.462958
    116 C37        -8.0760   -1.0960   -2.4620 c         1 MOL      0.029051
    117 O19        -7.4880   -0.7420   -3.5420 o         1 MOL     -0.465829
    118 C38        -9.6680    0.8820   -1.6760 c3        1 MOL     -0.321889
    119 C39       -10.9030    0.0560   -1.7220 ca        1 MOL      0.227573
    120 C40       -11.3080   -0.5300   -2.9450 ca        1 MOL     -0.293180
    121 C41       -11.6620   -0.2790   -0.5660 ca        1 MOL     -0.293180
    122 C42       -12.4260   -1.3370   -3.0130 ca        1 MOL     -0.022978
    123 C43       -12.7900   -1.1140   -0.5820 ca        1 MOL     -0.022978
    124 C44       -13.1780   -1.6510   -1.8770 ca        1 MOL     -0.235204
    125 H51        -6.9780    1.5060   -1.8820 hn        1 MOL      0.295845
    126 H52        -8.5910   -0.5280   -0.4860 h1        1 MOL     -0.015079
    127 H53        -9.5000    1.3230   -2.6670 hc        1 MOL      0.089393
    128 H54        -9.8000    1.7330   -1.0110 hc        1 MOL      0.089393
    129 H55       -10.6570   -0.4220   -3.8010 ha        1 MOL      0.158279
    130 H56       -11.3230    0.1440    0.3710 ha        1 MOL      0.158279
    131 H57       -12.7880   -1.6740   -3.9690 ha        1 MOL      0.092752
    132 H58       -13.3260   -1.4440    0.3050 ha        1 MOL      0.092752
    133 H59       -14.0280   -2.3210   -1.8940 ha        1 MOL      0.115721
    134 N12        -8.5430   -2.2940   -2.1770 n         1 MOL      0.243005
    135 C45        -9.3220   -2.9060   -1.0180 c3        1 MOL      0.172992
    136 C46        -8.6160   -2.7960    0.3540 c         1 MOL      0.230917
    137 O20        -9.1810   -2.5110    1.4380 o         1 MOL     -0.539286
    138 C47        -9.7380   -4.3810   -1.3990 c3        1 MOL     -0.110078
    139 C48        -9.5650   -4.3350   -2.9110 c3        1 MOL      0.022945
    140 C49        -8.4400   -3.2410   -3.2320 c3        1 MOL     -0.339272
    141 H60       -10.2870   -2.4110   -0.9730 h1        1 MOL      0.053825
    142 H61        -9.1090   -5.1880   -1.0230 hc        1 MOL      0.050207
    143 H62       -10.7870   -4.5700   -1.1550 hc        1 MOL      0.050207
    144 H63        -9.1840   -5.3180   -3.2170 hc        1 MOL     -0.010036
    145 H64       -10.4750   -4.1060   -3.4600 hc        1 MOL     -0.010036
    146 H65        -7.4970   -3.7960   -3.2880 h1        1 MOL      0.138377
    147 H66        -8.7520   -2.9000   -4.2270 h1        1 MOL      0.138377
    148 N13        -7.2780   -2.9520    0.3440 n         1 MOL     -0.112410
    149 C50        -6.5030   -2.8200    1.5300 c3        1 MOL      0.031913
    150 C51        -6.8630   -4.0700    2.4030 c         1 MOL      0.391107
    151 O21        -6.4410   -5.1580    1.9790 o         1 MOL     -0.579336
    152 C52        -5.0280   -2.7230    1.2980 c3        1 MOL      0.133030
    153 C53        -4.5400   -1.5200    0.5180 c3        1 MOL     -0.172889
    154 C54        -4.4650   -1.6480   -0.9790 c         1 MOL      0.642810
    155 O22        -3.6000   -0.9430   -1.6160 o         1 MOL     -0.646442
    156 O23        -5.1120   -2.4770   -1.6520 o         1 MOL     -0.646442
    157 H67        -6.8120   -3.2540   -0.4980 hn        1 MOL      0.143586
    158 H68        -6.7930   -1.9770    2.1540 h1        1 MOL      0.121567
    159 H69        -4.6450   -3.6200    0.8150 hc        1 MOL     -0.003737
    160 H70        -4.4550   -2.7420    2.2360 hc        1 MOL     -0.003737
    161 H71        -3.5020   -1.4060    0.8440 hc        1 MOL      0.002678
    162 H72        -4.9450   -0.5770    0.8860 hc        1 MOL      0.002678
    163 N14        -7.4370   -3.9670    3.5880 n         1 MOL     -0.260446
    164 C55        -7.4060   -2.8190    4.4890 c3        1 MOL     -0.092654
    165 H73        -6.9520   -1.9690    3.9780 h1        1 MOL      0.058227
    166 H74        -8.4220   -2.5630    4.7870 h1        1 MOL      0.058227
    167 H75        -6.8180   -3.0670    5.3730 h1        1 MOL      0.058227
    168 H76        -7.7210   -4.8540    3.9830 hn        1 MOL      0.230632
    169 Ca1         7.7350    0.2030    0.0400 Ca        1 MOL      1.781114
    170 O24         8.2260    2.7660   -0.3170 oh        1 MOL     -0.796322
    171 H77         7.9150    3.3950    0.3460 ho        1 MOL      0.375954
    172 H78         8.8110    3.2750   -0.8730 ho        1 MOL      0.375954
    173 O25         6.1730    0.6390    2.2840 oh        1 MOL     -0.796322
    174 H79         5.8590   -0.1970    2.6280 ho        1 MOL      0.375954
    175 H80         5.5230    1.2750    2.5640 ho        1 MOL      0.375954
    176 O26         9.8220    0.9420   -1.7860 oh        1 MOL     -0.796322
    177 H81         9.9040    1.6630   -2.4110 ho        1 MOL      0.375954
    178 H82        10.7170    0.7690   -1.5060 ho        1 MOL      0.375954
    179 O27        10.0780    1.2440    1.1920 oh        1 MOL     -0.796322
    180 H83        10.7660    0.5930    1.1080 ho        1 MOL      0.375954
    181 H84        10.5380    2.0870    1.1470 ho        1 MOL      0.375954
@<TRIPOS>BOND
     1    1    2 1   
     2    1    4 1   
     3    1    5 1   
     4    1    6 1   
     5    2    3 2   
     6    2    7 1   
     7    7    8 1   
     8    7   15 1   
     9    8    9 1   
    10    8   11 1   
    11    8   16 1   
    12    9   10 2   
    13    9   19 1   
    14   11   12 1   
    15   11   17 1   
    16   11   18 1   
    17   12   13 1   
    18   12   14 1   
    19   19   20 1   
    20   19   24 1   
    21   20   21 1   
    22   20   23 1   
    23   20   25 1   
    24   21   22 2   
    25   21   29 1   
    26   23   26 1   
    27   23   27 1   
    28   23   28 1   
    29   29   30 1   
    30   29   37 1   
    31   30   31 1   
    32   30   33 1   
    33   30   38 1   
    34   31   32 2   
    35   31   41 1   
    36   33   34 1   
    37   33   39 1   
    38   33   40 1   
    39   34   35 1   
    40   34   36 1   
    41   41   42 1   
    42   41   45 1   
    43   42   43 1   
    44   42   46 1   
    45   42   47 1   
    46   43   44 2   
    47   43   48 1   
    48   48   49 1   
    49   48   56 1   
    50   49   50 1   
    51   49   52 1   
    52   49   57 1   
    53   50   51 2   
    54   50   62 1   
    55   52   53 1   
    56   52   58 1   
    57   52   59 1   
    58   53   54 1   
    59   53   55 2   
    60   54   60 1   
    61   54   61 1   
    62   62   63 1   
    63   62   66 1   
    64   63   64 1   
    65   63   67 1   
    66   63   68 1   
    67   64   65 2   
    68   64   69 1   
    69   69   70 1   
    70   69   76 1   
    71   70   71 1   
    72   70   73 1   
    73   70   77 1   
    74   71   72 2   
    75   71   83 1   
    76   73   74 1   
    77   73   75 1   
    78   73   78 1   
    79   74   80 1   
    80   74   81 1   
    81   74   82 1   
    82   75   79 1   
    83   83   84 1   
    84   83   91 1   
    85   84   85 1   
    86   84   87 1   
    87   84   92 1   
    88   85   86 2   
    89   85  102 1   
    90   87   88 1   
    91   87   89 1   
    92   87   93 1   
    93   88   90 1   
    94   88   94 1   
    95   88   95 1   
    96   89   96 1   
    97   89   97 1   
    98   89   98 1   
    99   90   99 1   
   100   90  100 1   
   101   90  101 1   
   102  102  103 1   
   103  102  110 1   
   104  103  104 1   
   105  103  106 1   
   106  103  111 1   
   107  104  105 2   
   108  104  114 1   
   109  106  107 1   
   110  106  112 1   
   111  106  113 1   
   112  107  108 1   
   113  107  109 1   
   114  114  115 1   
   115  114  125 1   
   116  115  116 1   
   117  115  118 1   
   118  115  126 1   
   119  116  117 2   
   120  116  134 1   
   121  118  119 1   
   122  118  127 1   
   123  118  128 1   
   124  119  120 ar  
   125  119  121 ar  
   126  120  122 ar  
   127  120  129 1   
   128  121  123 ar  
   129  121  130 1   
   130  122  124 ar  
   131  122  131 1   
   132  123  124 ar  
   133  123  132 1   
   134  124  133 1   
   135  134  135 1   
   136  134  140 1   
   137  135  136 1   
   138  135  138 1   
   139  135  141 1   
   140  136  137 2   
   141  136  148 1   
   142  138  139 1   
   143  138  142 1   
   144  138  143 1   
   145  139  140 1   
   146  139  144 1   
   147  139  145 1   
   148  140  146 1   
   149  140  147 1   
   150  148  149 1   
   151  148  157 1   
   152  149  150 1   
   153  149  152 1   
   154  149  158 1   
   155  150  151 2   
   156  150  163 1   
   157  152  153 1   
   158  152  159 1   
   159  152  160 1   
   160  153  154 1   
   161  153  161 1   
   162  153  162 1   
   163  154  155 1   
   164  154  156 1   
   165  163  164 1   
   166  163  168 1   
   167  164  165 1   
   168  164  166 1   
   169  164  167 1   
   170  170  171 1   
   171  170  172 1   
   172  173  174 1   
   173  173  175 1   
   174  176  177 1   
   175  176  178 1   
   176  179  180 1   
   177  179  181 1   
@<TRIPOS>SUBSTRUCTURE
     1 MOL         1 TEMP              0 ****  ****    0 ROOT
