@<TRIPOS>MOLECULE
MOL
  195   189     1     0     0
SMALL
resp


@<TRIPOS>ATOM
      1 C1         -4.9660    4.5320    4.8520 c3        1 MOL     -0.345151
      2 C2         -4.3230    3.3910    4.0350 c         1 MOL      0.620940
      3 O1         -3.3290    2.8380    4.4910 o         1 MOL     -0.544797
      4 H1         -5.2960    4.1470    5.8170 hc        1 MOL      0.088591
      5 H2         -4.2340    5.3240    5.0100 hc        1 MOL      0.088591
      6 H3         -5.8220    4.9310    4.3090 hc        1 MOL      0.088591
      7 N1         -4.7960    3.0550    2.8720 n         1 MOL     -0.484523
      8 C3         -4.3440    2.0740    1.8950 c3        1 MOL      0.001085
      9 C4         -3.0930    2.4940    1.0890 c         1 MOL      0.470974
     10 O2         -2.6370    1.6760    0.2830 o         1 MOL     -0.554644
     11 C5         -5.4130    1.7070    0.9350 c3        1 MOL     -0.272983
     12 C6         -6.0960    2.8740    0.2360 c         1 MOL      0.726615
     13 O3         -6.6060    2.5810   -0.8450 o         1 MOL     -0.726210
     14 O4         -6.3230    3.9750    0.7740 o         1 MOL     -0.726210
     15 H4         -5.5030    3.7170    2.5690 hn        1 MOL      0.306813
     16 H5         -4.0420    1.1420    2.3640 h1        1 MOL      0.111189
     17 H6         -6.1510    1.2440    1.5990 hc        1 MOL      0.087284
     18 H7         -5.0630    0.8780    0.3240 hc        1 MOL      0.087284
     19 N2         -2.5420    3.6770    1.2410 n         1 MOL     -0.426011
     20 C7         -1.4640    4.2000    0.3980 c3        1 MOL      0.318960
     21 C8         -0.2570    4.4590    1.3410 c         1 MOL      0.490104
     22 O5         -0.4350    5.1990    2.3140 o         1 MOL     -0.542560
     23 C9         -1.9490    5.4770   -0.3000 c3        1 MOL     -0.277288
     24 C10        -2.8220    5.3090   -1.5570 c3        1 MOL      0.245773
     25 C11        -3.2000    6.7060   -2.1800 c3        1 MOL     -0.180514
     26 C12        -3.6930    6.7240   -3.6470 c3        1 MOL      0.065765
     27 N3         -4.9320    5.8730   -3.5820 n4        1 MOL     -0.431003
     28 H8         -2.8950    4.2920    1.9670 hn        1 MOL      0.277568
     29 H9         -1.1390    3.5350   -0.4060 h1        1 MOL      0.009244
     30 H10        -1.0430    6.0340   -0.5450 hc        1 MOL      0.071926
     31 H11        -2.5330    6.0560    0.4110 hc        1 MOL      0.071926
     32 H12        -3.7000    4.7200   -1.3200 hc        1 MOL     -0.031829
     33 H13        -2.2120    4.7510   -2.2630 hc        1 MOL     -0.031829
     34 H14        -2.2770    7.2760   -2.0750 hc        1 MOL      0.071271
     35 H15        -3.9510    7.1870   -1.5470 hc        1 MOL      0.071271
     36 H16        -3.0250    6.3080   -4.4080 hx        1 MOL      0.092023
     37 H17        -3.8920    7.7300   -4.0180 hx        1 MOL      0.092023
     38 H18        -5.6120    6.1190   -4.2850 hn        1 MOL      0.339982
     39 H19        -4.8020    4.8730   -3.7120 hn        1 MOL      0.339982
     40 H20        -5.3120    6.0350   -2.6680 hn        1 MOL      0.339982
     41 N4          0.9780    4.0380    1.0120 n         1 MOL     -0.464740
     42 C13         1.5230    3.2420   -0.1130 c3        1 MOL     -0.057245
     43 C14         1.5940    3.8810   -1.5250 c         1 MOL      0.549211
     44 O6          0.6080    4.0760   -2.2050 o         1 MOL     -0.535666
     45 C15         1.0650    1.7890   -0.1700 c3        1 MOL     -0.028573
     46 C16         1.3920    0.9650    1.1230 c         1 MOL      0.823622
     47 O7          0.9250    1.2550    2.2810 o         1 MOL     -0.787708
     48 O8          2.0630   -0.0730    1.0060 o         1 MOL     -0.787708
     49 H21         1.6470    4.4860    1.6120 hn        1 MOL      0.311531
     50 H22         2.5710    3.1360    0.1980 h1        1 MOL      0.106692
     51 H23         1.5360    1.2540   -0.9910 hc        1 MOL      0.017671
     52 H24         0.0010    1.6210   -0.3190 hc        1 MOL      0.017671
     53 N5          2.8330    4.2390   -2.0320 n         1 MOL     -0.549830
     54 C17         4.1990    3.9440   -1.4980 c3        1 MOL      0.196666
     55 C18         5.2610    3.4230   -2.4900 c         1 MOL      0.549438
     56 O9          4.9250    3.1810   -3.6520 o         1 MOL     -0.594776
     57 H25         2.7520    4.6290   -2.9560 hn        1 MOL      0.321625
     58 H26         4.2330    3.2600   -0.6490 h1        1 MOL      0.020059
     59 H27         4.6430    4.8730   -1.1320 h1        1 MOL      0.020059
     60 N6          6.5050    3.2090   -2.1090 n         1 MOL     -0.353541
     61 C19         6.9320    3.1600   -0.6900 c3        1 MOL     -0.318392
     62 C20         7.9920    2.1160   -0.5570 c         1 MOL      0.679991
     63 O10         8.7890    1.8030   -1.4560 o         1 MOL     -0.532152
     64 C21         7.5860    4.5500   -0.3400 c3        1 MOL     -0.411005
     65 C22         7.7710    4.6680    1.2630 c         1 MOL      0.650003
     66 O11         8.8770    4.3120    1.7550 o         1 MOL     -0.646362
     67 O12         6.7830    4.8590    2.0330 o         1 MOL     -0.646362
     68 H28         7.1560    2.8280   -2.7770 hn        1 MOL      0.304012
     69 H29         6.0510    3.0460   -0.0590 h1        1 MOL      0.131094
     70 H30         7.0060    5.3730   -0.7560 hc        1 MOL      0.148120
     71 H31         8.5910    4.5840   -0.7640 hc        1 MOL      0.148120
     72 N7          8.0400    1.3750    0.5270 n         1 MOL     -0.283926
     73 C23         8.9300    0.1850    0.6930 c3        1 MOL     -0.097964
     74 C24         8.2130   -1.0650    0.1380 c         1 MOL      0.523676
     75 O13         8.3920   -1.3290   -1.0730 o         1 MOL     -0.515775
     76 H32         7.2830    1.5380    1.1860 hn        1 MOL      0.271933
     77 H33         9.0040    0.0540    1.7720 h1        1 MOL      0.086208
     78 H34         9.9260    0.3420    0.2700 h1        1 MOL      0.086208
     79 N8          7.4270   -1.7480    0.9120 n         1 MOL     -0.506384
     80 C25         6.7310   -2.9180    0.4680 c3        1 MOL      0.224479
     81 C26         5.3890   -2.5340   -0.1420 c         1 MOL      0.248676
     82 O14         4.7230   -1.5880    0.2820 o         1 MOL     -0.484712
     83 C27         6.5000   -3.8260    1.6580 c3        1 MOL      0.316945
     84 C28         7.8650   -4.2360    2.2970 c3        1 MOL     -0.309490
     85 O15         5.6640   -4.9390    1.4620 oh        1 MOL     -0.617454
     86 H35         7.2440   -1.3480    1.8260 hn        1 MOL      0.306917
     87 H36         7.3320   -3.3750   -0.3210 h1        1 MOL      0.073803
     88 H37         6.0240   -3.3030    2.4780 h1        1 MOL     -0.041690
     89 H38         5.7800   -5.3950    2.3000 ho        1 MOL      0.411293
     90 H39         8.5310   -4.5580    1.5040 hc        1 MOL      0.075173
     91 H40         8.3620   -3.4260    2.8340 hc        1 MOL      0.075173
     92 H41         7.6950   -5.0850    2.9670 hc        1 MOL      0.075173
     93 N9          4.9290   -3.2760   -1.1320 n         1 MOL     -0.404605
     94 C29         3.6050   -2.9270   -1.8350 c3        1 MOL     -0.104787
     95 C30         2.7210   -4.1370   -2.1020 c         1 MOL      0.632103
     96 O16         3.1150   -5.2260   -2.2190 o         1 MOL     -0.543182
     97 C31         3.9270   -2.1510   -3.1730 c3        1 MOL      0.115571
     98 C32         4.6420   -0.8110   -2.9160 c3        1 MOL      0.013228
     99 C33         2.6860   -1.9060   -4.1240 c3        1 MOL     -0.361740
    100 C34         5.3800   -0.2020   -4.2310 c3        1 MOL     -0.136741
    101 H42         5.6250   -3.8450   -1.5880 hn        1 MOL      0.303318
    102 H43         3.0430   -2.2610   -1.1670 h1        1 MOL      0.119789
    103 H44         4.6360   -2.8010   -3.6980 hc        1 MOL      0.037137
    104 H45         5.4940   -0.8510   -2.2440 hc        1 MOL      0.044873
    105 H46         4.0600   -0.0290   -2.4330 hc        1 MOL      0.044873
    106 H47         3.0720   -1.7140   -5.1200 hc        1 MOL      0.088946
    107 H48         2.1390   -2.8510   -4.2530 hc        1 MOL      0.088946
    108 H49         1.9990   -1.1520   -3.7370 hc        1 MOL      0.088946
    109 H50         5.9290    0.7090   -3.9890 hc        1 MOL      0.036206
    110 H51         6.0640   -0.9080   -4.7040 hc        1 MOL      0.036206
    111 H52         4.5330   -0.0660   -4.9040 hc        1 MOL      0.036206
    112 N10         1.4190   -3.9000   -2.0450 n         1 MOL     -0.286885
    113 C35         0.3390   -4.8640   -2.1830 c3        1 MOL     -0.081928
    114 C36        -1.0140   -4.2780   -2.7280 c         1 MOL      0.366340
    115 O17        -1.7250   -4.9400   -3.5300 o         1 MOL     -0.478367
    116 C37         0.0250   -5.6690   -0.8780 c3        1 MOL      0.370441
    117 C38        -0.1170   -4.7920    0.3340 c3        1 MOL     -0.341333
    118 O18         0.8820   -6.6360   -0.5560 oh        1 MOL     -0.598537
    119 H53         1.1700   -2.9700   -1.7610 hn        1 MOL      0.148913
    120 H54         0.7550   -5.5950   -2.8740 h1        1 MOL      0.113574
    121 H55        -0.9240   -6.1900   -1.0170 h1        1 MOL      0.061866
    122 H56         1.5230   -6.1390   -0.0430 ho        1 MOL      0.383024
    123 H57        -0.2270   -5.3770    1.2440 hc        1 MOL      0.084514
    124 H58         0.6870   -4.0590    0.3740 hc        1 MOL      0.084514
    125 H59        -1.0250   -4.2330    0.1210 hc        1 MOL      0.084514
    126 N11        -1.2890   -3.0580   -2.2970 n         1 MOL     -0.524371
    127 C39        -2.4710   -2.2630   -2.6060 c3        1 MOL      0.045413
    128 C40        -3.7520   -2.8690   -1.9430 c         1 MOL      0.443516
    129 O19        -3.9110   -4.1200   -1.9180 o         1 MOL     -0.466873
    130 C41        -2.7290   -2.0310   -4.1160 c3        1 MOL      0.470296
    131 C42        -1.4640   -1.6400   -4.7580 c3        1 MOL     -0.482759
    132 O20        -3.6080   -0.9220   -4.2730 oh        1 MOL     -0.665793
    133 H60        -0.6500   -2.7220   -1.6000 hn        1 MOL      0.403146
    134 H61        -2.3390   -1.3010   -2.1150 h1        1 MOL      0.031692
    135 H62        -3.1510   -2.9790   -4.4410 h1        1 MOL      0.057560
    136 H63        -3.1410   -0.2830   -3.7210 ho        1 MOL      0.380138
    137 H64        -0.9100   -2.5510   -4.9620 hc        1 MOL      0.121944
    138 H65        -1.6670   -1.3090   -5.7790 hc        1 MOL      0.121944
    139 H66        -0.8220   -0.9060   -4.2760 hc        1 MOL      0.121944
    140 N12        -4.7130   -2.0830   -1.5040 n         1 MOL     -0.374840
    141 C43        -6.0380   -2.4670   -1.0240 c3        1 MOL     -0.074267
    142 C44        -5.9690   -2.9860    0.4160 c         1 MOL      0.415223
    143 O21        -6.8900   -3.7180    0.7230 o         1 MOL     -0.505300
    144 C45        -6.9490   -1.2200   -1.2340 c3        1 MOL     -0.073818
    145 C46        -6.9840   -0.7590   -2.6680 c3        1 MOL      0.011836
    146 C47        -8.2480    0.0170   -3.0150 c3        1 MOL      0.058274
    147 C48        -8.5080   -0.1510   -4.5220 c3        1 MOL      0.059803
    148 N13        -9.8210    0.4360   -4.9180 n4        1 MOL     -0.274023
    149 H67        -4.5340   -1.0970   -1.4360 hn        1 MOL      0.257231
    150 H68        -6.3950   -3.3420   -1.5670 h1        1 MOL      0.116032
    151 H69        -6.5990   -0.3860   -0.6310 hc        1 MOL      0.053098
    152 H70        -7.9340   -1.5530   -0.9130 hc        1 MOL      0.053098
    153 H71        -6.8750   -1.6240   -3.3330 hc        1 MOL      0.017193
    154 H72        -6.1330   -0.1120   -2.8460 hc        1 MOL      0.017193
    155 H73        -8.0590    1.0660   -2.7810 hc        1 MOL      0.009343
    156 H74        -9.1320   -0.3630   -2.5040 hc        1 MOL      0.009343
    157 H75        -8.5680   -1.2260   -4.7270 hx        1 MOL      0.060140
    158 H76        -7.6590    0.2590   -5.0570 hx        1 MOL      0.060140
    159 H77        -9.7700    1.4180   -4.7210 hn        1 MOL      0.263506
    160 H78        -9.9950    0.3460   -5.9090 hn        1 MOL      0.263506
    161 H79       -10.5670    0.0750   -4.3360 hn        1 MOL      0.263506
    162 N14        -4.9470   -2.5480    1.2130 n         1 MOL     -0.064469
    163 C49        -4.9030   -2.9340    2.6170 c3        1 MOL     -0.399264
    164 C50        -6.0170   -2.0540    3.2860 c         1 MOL      0.476816
    165 O22        -5.8370   -0.9000    3.4840 o         1 MOL     -0.461252
    166 C51        -3.5160   -2.6430    3.2520 c3        1 MOL      0.091594
    167 C52        -2.4190   -3.4840    2.5560 c3        1 MOL     -0.127759
    168 C53        -1.0850   -2.7840    2.8350 c         1 MOL      0.737444
    169 O23        -0.2000   -3.1010    3.6700 o         1 MOL     -0.801490
    170 O24        -0.8110   -1.7930    2.1020 o         1 MOL     -0.801490
    171 H80        -4.2280   -1.9680    0.8060 hn        1 MOL      0.238914
    172 H81        -5.1550   -3.9910    2.6950 h1        1 MOL      0.134507
    173 H82        -3.5210   -2.8720    4.3170 hc        1 MOL      0.054615
    174 H83        -3.3110   -1.5810    3.1400 hc        1 MOL      0.054615
    175 H84        -2.6550   -3.5600    1.4930 hc        1 MOL      0.032327
    176 H85        -2.5610   -4.4660    3.0160 hc        1 MOL      0.032327
    177 N15        -7.1440   -2.6860    3.5590 n         1 MOL     -0.283997
    178 C54        -8.2810   -2.0090    4.0770 c3        1 MOL     -0.049936
    179 H86        -8.7800   -2.6450    4.8080 h1        1 MOL      0.055676
    180 H87        -7.9660   -1.0830    4.5570 h1        1 MOL      0.055676
    181 H88        -8.9710   -1.7820    3.2640 h1        1 MOL      0.055676
    182 H89        -7.2850   -3.6110    3.1920 hn        1 MOL      0.258234
    183 Ca1         1.2520   -0.9640    3.6770 Ca        1 MOL      1.677161
    184 O25         2.5810   -2.5940    1.9290 oh        1 MOL     -0.771539
    185 H90         2.8710   -3.4780    1.7170 ho        1 MOL      0.391285
    186 H91         2.7980   -2.0760    1.1480 ho        1 MOL      0.391285
    187 O26         0.3730   -1.2650    6.3870 oh        1 MOL     -0.771539
    188 H92         0.4740   -1.1130    7.3240 ho        1 MOL      0.391285
    189 H93         0.9340   -2.0300    6.2040 ho        1 MOL      0.391285
    190 O27        -1.1690    0.4280    3.9960 oh        1 MOL     -0.771539
    191 H94        -1.5100    0.1900    3.1250 ho        1 MOL      0.391285
    192 H95        -0.8340    1.3150    3.8770 ho        1 MOL      0.391285
    193 O28         3.8610    0.1410    3.6800 oh        1 MOL     -0.771539
    194 H96         4.1020    1.0250    3.9410 ho        1 MOL      0.391285
    195 H97         4.6650   -0.2450    3.3460 ho        1 MOL      0.391285
@<TRIPOS>BOND
     1    1    2 1   
     2    1    4 1   
     3    1    5 1   
     4    1    6 1   
     5    2    3 2   
     6    2    7 1   
     7    7    8 1   
     8    7   15 1   
     9    8    9 1   
    10    8   11 1   
    11    8   16 1   
    12    9   10 2   
    13    9   19 1   
    14   11   12 1   
    15   11   17 1   
    16   11   18 1   
    17   12   13 1   
    18   12   14 1   
    19   19   20 1   
    20   19   28 1   
    21   20   21 1   
    22   20   23 1   
    23   20   29 1   
    24   21   22 2   
    25   21   41 1   
    26   23   24 1   
    27   23   30 1   
    28   23   31 1   
    29   24   25 1   
    30   24   32 1   
    31   24   33 1   
    32   25   26 1   
    33   25   34 1   
    34   25   35 1   
    35   26   27 1   
    36   26   36 1   
    37   26   37 1   
    38   27   38 1   
    39   27   39 1   
    40   27   40 1   
    41   41   42 1   
    42   41   49 1   
    43   42   43 1   
    44   42   45 1   
    45   42   50 1   
    46   43   44 2   
    47   43   53 1   
    48   45   46 1   
    49   45   51 1   
    50   45   52 1   
    51   46   47 1   
    52   46   48 1   
    53   53   54 1   
    54   53   57 1   
    55   54   55 1   
    56   54   58 1   
    57   54   59 1   
    58   55   56 2   
    59   55   60 1   
    60   60   61 1   
    61   60   68 1   
    62   61   62 1   
    63   61   64 1   
    64   61   69 1   
    65   62   63 2   
    66   62   72 1   
    67   64   65 1   
    68   64   70 1   
    69   64   71 1   
    70   65   66 1   
    71   65   67 1   
    72   72   73 1   
    73   72   76 1   
    74   73   74 1   
    75   73   77 1   
    76   73   78 1   
    77   74   75 2   
    78   74   79 1   
    79   79   80 1   
    80   79   86 1   
    81   80   81 1   
    82   80   83 1   
    83   80   87 1   
    84   81   82 2   
    85   81   93 1   
    86   83   84 1   
    87   83   85 1   
    88   83   88 1   
    89   84   90 1   
    90   84   91 1   
    91   84   92 1   
    92   85   89 1   
    93   93   94 1   
    94   93  101 1   
    95   94   95 1   
    96   94   97 1   
    97   94  102 1   
    98   95   96 2   
    99   95  112 1   
   100   97   98 1   
   101   97   99 1   
   102   97  103 1   
   103   98  100 1   
   104   98  104 1   
   105   98  105 1   
   106   99  106 1   
   107   99  107 1   
   108   99  108 1   
   109  100  109 1   
   110  100  110 1   
   111  100  111 1   
   112  112  113 1   
   113  112  119 1   
   114  113  114 1   
   115  113  116 1   
   116  113  120 1   
   117  114  115 2   
   118  114  126 1   
   119  116  117 1   
   120  116  118 1   
   121  116  121 1   
   122  117  123 1   
   123  117  124 1   
   124  117  125 1   
   125  118  122 1   
   126  126  127 1   
   127  126  133 1   
   128  127  128 1   
   129  127  130 1   
   130  127  134 1   
   131  128  129 2   
   132  128  140 1   
   133  130  131 1   
   134  130  132 1   
   135  130  135 1   
   136  131  137 1   
   137  131  138 1   
   138  131  139 1   
   139  132  136 1   
   140  140  141 1   
   141  140  149 1   
   142  141  142 1   
   143  141  144 1   
   144  141  150 1   
   145  142  143 2   
   146  142  162 1   
   147  144  145 1   
   148  144  151 1   
   149  144  152 1   
   150  145  146 1   
   151  145  153 1   
   152  145  154 1   
   153  146  147 1   
   154  146  155 1   
   155  146  156 1   
   156  147  148 1   
   157  147  157 1   
   158  147  158 1   
   159  148  159 1   
   160  148  160 1   
   161  148  161 1   
   162  162  163 1   
   163  162  171 1   
   164  163  164 1   
   165  163  166 1   
   166  163  172 1   
   167  164  165 2   
   168  164  177 1   
   169  166  167 1   
   170  166  173 1   
   171  166  174 1   
   172  167  168 1   
   173  167  175 1   
   174  167  176 1   
   175  168  169 1   
   176  168  170 1   
   177  177  178 1   
   178  177  182 1   
   179  178  179 1   
   180  178  180 1   
   181  178  181 1   
   182  184  185 1   
   183  184  186 1   
   184  187  188 1   
   185  187  189 1   
   186  190  191 1   
   187  190  192 1   
   188  193  194 1   
   189  193  195 1   
@<TRIPOS>SUBSTRUCTURE
     1 MOL         1 TEMP              0 ****  ****    0 ROOT
