@<TRIPOS>MOLECULE
MOL
  192   187     1     0     0
SMALL
resp


@<TRIPOS>ATOM
      1 C1          9.0730    2.4280    1.3680 c3        1 MOL     -0.388627
      2 C2          8.0630    1.5150    0.6200 c         1 MOL      0.670936
      3 O1          6.9940    1.2290    1.1360 o         1 MOL     -0.638430
      4 H1          9.0490    3.4280    0.9340 hc        1 MOL      0.101882
      5 H2          8.8010    2.4830    2.4220 hc        1 MOL      0.101882
      6 H3         10.0780    2.0150    1.2730 hc        1 MOL      0.101882
      7 N1          8.3690    1.2180   -0.6470 n         1 MOL     -0.413425
      8 C3          7.4520    0.3710   -1.4700 c3        1 MOL     -0.009894
      9 C4          7.5120   -1.1080   -1.0350 c         1 MOL      0.513392
     10 O2          8.1860   -1.9370   -1.6390 o         1 MOL     -0.471519
     11 C5          7.9080    0.5410   -2.9440 c3        1 MOL     -0.142927
     12 C6          9.3460    0.0870   -3.3230 c         1 MOL      0.665925
     13 O3         10.3230    0.6750   -2.7980 o         1 MOL     -0.652025
     14 O4          9.4750   -0.8080   -4.1910 o         1 MOL     -0.652025
     15 H4          9.2250    1.4530   -1.1210 hn        1 MOL      0.207098
     16 H5          6.4280    0.7470   -1.4230 h1        1 MOL      0.093911
     17 H6          7.8680    1.6060   -3.1830 hc        1 MOL      0.050509
     18 H7          7.1800    0.0420   -3.5720 hc        1 MOL      0.050509
     19 N2          6.9100   -1.3650    0.1300 n         1 MOL     -0.330716
     20 C7          6.7800   -2.6750    0.7210 c3        1 MOL      0.114426
     21 C8          5.4070   -3.3490    0.4870 c         1 MOL      0.581157
     22 O5          5.3790   -4.5850    0.3780 o         1 MOL     -0.560369
     23 C9          7.1450   -2.6530    2.2140 c3        1 MOL     -0.116031
     24 C10         8.5820   -2.1540    2.4850 c3        1 MOL      0.075530
     25 C11         9.7540   -2.7370    1.7600 c3        1 MOL      0.021153
     26 C12        10.9900   -2.8870    2.6890 c3        1 MOL      0.022378
     27 N3         12.2310   -3.2340    2.0180 n4        1 MOL     -0.160680
     28 H8          6.5280   -0.5450    0.5740 hn        1 MOL      0.230494
     29 H9          7.4450   -3.3880    0.2380 h1        1 MOL      0.012488
     30 H10         7.0460   -3.6590    2.6340 hc        1 MOL      0.035731
     31 H11         6.3910   -2.0500    2.7230 hc        1 MOL      0.035731
     32 H12         8.7270   -2.2100    3.5570 hc        1 MOL     -0.022801
     33 H13         8.6430   -1.0950    2.2320 hc        1 MOL     -0.022801
     34 H14         9.9980   -2.2190    0.8270 hc        1 MOL      0.030030
     35 H15         9.6040   -3.7800    1.4770 hc        1 MOL      0.030030
     36 H16        10.8010   -3.6970    3.3930 hx        1 MOL      0.058655
     37 H17        11.1740   -1.9690    3.2630 hx        1 MOL      0.058655
     38 H18        12.1600   -3.9640    1.3250 hn        1 MOL      0.266838
     39 H19        12.6770   -2.4960    1.4850 hn        1 MOL      0.266838
     40 H20        13.0000   -3.5470    2.6060 hn        1 MOL      0.266838
     41 N4          4.3370   -2.5810    0.2430 n         1 MOL     -0.515291
     42 C13         4.0080   -1.3130    1.0000 c3        1 MOL      0.053488
     43 C14         3.9410   -0.0730    0.0670 c         1 MOL      0.137841
     44 O6          3.7330   -0.1610   -1.1230 o         1 MOL     -0.424903
     45 C15         2.6810   -1.5330    1.7600 c3        1 MOL     -0.218223
     46 C16         1.4810   -2.0850    0.9830 c         1 MOL      0.825404
     47 O7          0.5960   -1.2680    0.6640 o         1 MOL     -0.712213
     48 O8          1.4000   -3.3090    0.8080 o         1 MOL     -0.712213
     49 H21         3.5680   -3.1270   -0.1020 hn        1 MOL      0.366045
     50 H22         4.7300   -1.0960    1.7780 h1        1 MOL      0.121197
     51 H23         2.3960   -0.5560    2.1670 hc        1 MOL      0.033924
     52 H24         2.8980   -2.2000    2.5920 hc        1 MOL      0.033924
     53 N5          4.0830    1.1320    0.6120 n         1 MOL     -0.168564
     54 C17         3.8360    2.3760   -0.1530 c3        1 MOL     -0.098616
     55 C18         2.4550    2.6310   -0.5910 c         1 MOL      0.800336
     56 O9          1.5250    1.8510   -0.4810 o         1 MOL     -0.588219
     57 H25         4.3660    1.2410    1.5770 hn        1 MOL      0.248171
     58 H26         4.5380    2.3830   -0.9890 h1        1 MOL      0.086400
     59 H27         4.1780    3.2100    0.4620 h1        1 MOL      0.086400
     60 N6          2.4240    3.7980   -1.2740 n         1 MOL     -0.810298
     61 C19         1.2270    4.3760   -1.9460 c3        1 MOL      0.510585
     62 C20         1.3150    5.9220   -2.1750 c         1 MOL      0.364914
     63 O10         2.3840    6.5090   -2.1600 o         1 MOL     -0.499456
     64 C21         0.9480    3.8270   -3.3400 c3        1 MOL     -0.249275
     65 C22         0.4830    2.3930   -3.3510 c         1 MOL      0.651194
     66 O11        -0.5050    2.0370   -2.6410 o         1 MOL     -0.674900
     67 O12         1.1980    1.5490   -3.9870 o         1 MOL     -0.674900
     68 H28         3.2950    4.2740   -1.4610 hn        1 MOL      0.334323
     69 H29         0.3850    4.1470   -1.2990 h1        1 MOL      0.054508
     70 H30         1.8470    4.0140   -3.9290 hc        1 MOL      0.058263
     71 H31         0.1910    4.4970   -3.7480 hc        1 MOL      0.058263
     72 N7          0.1850    6.6680   -2.3590 n         1 MOL     -0.429145
     73 C23        -1.1680    6.2560   -2.3150 c3        1 MOL     -0.066951
     74 C24        -1.6590    5.7790   -0.9200 c         1 MOL      0.589590
     75 O13        -1.2930    6.2710    0.1450 o         1 MOL     -0.532878
     76 H32         0.2280    7.6440   -2.6070 hn        1 MOL      0.329264
     77 H33        -1.3920    5.4760   -3.0290 h1        1 MOL      0.066381
     78 H34        -1.8290    7.0770   -2.5800 h1        1 MOL      0.066381
     79 N8         -2.5300    4.7820   -0.9430 n         1 MOL     -0.567507
     80 C25        -3.1240    4.2390    0.2880 c3        1 MOL      0.265513
     81 C26        -2.1410    3.2420    0.9220 c         1 MOL      0.120798
     82 O14        -1.3320    2.6560    0.2010 o         1 MOL     -0.497252
     83 C27        -4.5430    3.6680    0.0990 c3        1 MOL      0.590771
     84 C28        -5.3390    4.5070   -0.9020 c3        1 MOL     -0.412187
     85 O15        -5.2780    3.6130    1.2640 oh        1 MOL     -0.738781
     86 H35        -2.5830    4.2460   -1.7940 hn        1 MOL      0.236959
     87 H36        -3.2360    5.0290    1.0200 h1        1 MOL      0.053147
     88 H37        -4.4920    2.6500   -0.2690 h1        1 MOL     -0.104556
     89 H38        -6.0070    3.0230    1.0660 ho        1 MOL      0.420290
     90 H39        -6.4230    4.3380   -0.8470 hc        1 MOL      0.092151
     91 H40        -5.0570    5.5510   -0.7840 hc        1 MOL      0.092151
     92 H41        -5.2420    4.1270   -1.9190 hc        1 MOL      0.092151
     93 N9         -2.1740    3.1100    2.2120 n         1 MOL     -0.128811
     94 C29        -1.3830    2.1480    3.0170 c3        1 MOL     -0.073631
     95 C30        -1.7730    0.6630    2.7780 c         1 MOL      0.434804
     96 O16        -1.8660    0.1590    1.6820 o         1 MOL     -0.472359
     97 C31         0.1080    2.3800    2.9050 c3        1 MOL      0.030509
     98 C32         0.4100    3.8390    3.3310 c3        1 MOL      0.110363
     99 C33         0.8430    1.4360    3.8660 c3        1 MOL     -0.342157
    100 C34         1.1350    4.7340    2.3930 c3        1 MOL     -0.058304
    101 H42        -2.8060    3.6630    2.7680 hn        1 MOL      0.257390
    102 H43        -1.7280    2.4300    4.0150 h1        1 MOL      0.039637
    103 H44         0.5780    2.2310    1.9390 hc        1 MOL      0.033527
    104 H45         0.9720    3.9200    4.2560 hc        1 MOL     -0.018961
    105 H46        -0.4960    4.3950    3.6030 hc        1 MOL     -0.018961
    106 H47         1.9230    1.5380    3.9700 hc        1 MOL      0.086944
    107 H48         0.4930    1.6760    4.8690 hc        1 MOL      0.086944
    108 H49         0.6870    0.3730    3.7080 hc        1 MOL      0.086944
    109 H50         1.9470    4.1000    2.0390 hc        1 MOL      0.011950
    110 H51         0.5030    5.1960    1.6230 hc        1 MOL      0.011950
    111 H52         1.6890    5.4500    2.9960 hc        1 MOL      0.011950
    112 N10        -1.9000   -0.0790    3.7950 n         1 MOL     -0.332920
    113 C35        -2.1000   -1.5950    3.8210 c3        1 MOL     -0.111474
    114 C36        -3.5280   -2.1380    3.3730 c         1 MOL      0.407550
    115 O17        -4.0400   -3.1210    3.9050 o         1 MOL     -0.485503
    116 C37        -1.7270   -2.2130    5.1810 c3        1 MOL      0.477064
    117 C38        -2.5310   -1.9000    6.4280 c3        1 MOL     -0.286316
    118 O18        -0.4280   -1.7590    5.5460 oh        1 MOL     -0.640607
    119 H53        -1.5470    0.3040    4.6580 hn        1 MOL      0.278767
    120 H54        -1.3270   -1.9090    3.1200 h1        1 MOL      0.081449
    121 H55        -1.6000   -3.2870    5.0740 h1        1 MOL      0.003643
    122 H56         0.1510   -2.1940    4.9110 ho        1 MOL      0.391330
    123 H57        -3.5280   -2.3540    6.3970 hc        1 MOL      0.076780
    124 H58        -2.0580   -2.4000    7.2690 hc        1 MOL      0.076780
    125 H59        -2.7240   -0.8310    6.5060 hc        1 MOL      0.076780
    126 N11        -4.2120   -1.3040    2.4960 n         1 MOL     -0.123520
    127 C39        -5.6900   -1.3140    2.3250 c3        1 MOL     -0.500854
    128 C40        -6.0330   -1.1170    0.8300 c         1 MOL      1.043833
    129 O19        -5.5660   -0.1590    0.1760 o         1 MOL     -0.580911
    130 C41        -6.3780   -0.2590    3.2450 c3        1 MOL      0.283948
    131 C42        -5.8910   -0.1770    4.7480 c3        1 MOL     -0.151166
    132 O20        -6.0950    1.0440    2.7850 oh        1 MOL     -0.509771
    133 H60        -3.5860   -0.6810    2.0060 hn        1 MOL      0.186938
    134 H61        -6.0210   -2.3330    2.5470 h1        1 MOL      0.169244
    135 H62        -7.4630   -0.3570    3.2860 h1        1 MOL      0.020524
    136 H63        -5.2880    1.1400    3.2950 ho        1 MOL      0.292992
    137 H64        -4.8160   -0.0830    4.9000 hc        1 MOL      0.053433
    138 H65        -6.4660    0.4880    5.3910 hc        1 MOL      0.053433
    139 H66        -6.2280   -1.0900    5.2440 hc        1 MOL      0.053433
    140 N12        -6.8640   -2.0410    0.2700 n         1 MOL     -0.950723
    141 C43        -7.1230   -2.2300   -1.1550 c3        1 MOL      0.504014
    142 C44        -5.7720   -2.3220   -1.9180 c         1 MOL      0.403099
    143 O21        -5.5470   -1.5690   -2.8230 o         1 MOL     -0.490220
    144 C45        -8.1190   -1.2510   -1.7680 c3        1 MOL     -0.289510
    145 C46        -9.3940   -1.0950   -0.8740 c3        1 MOL      0.102544
    146 C47       -10.4960   -0.3850   -1.6810 c3        1 MOL     -0.043110
    147 C48       -11.8200   -0.0070   -1.0050 c3        1 MOL      0.083924
    148 N13       -11.8400   -0.0290    0.4870 n4        1 MOL     -0.132016
    149 H67        -7.2820   -2.7540    0.8560 hn        1 MOL      0.362476
    150 H68        -7.5590   -3.2210   -1.2650 h1        1 MOL      0.005858
    151 H69        -8.3460   -1.5320   -2.8010 hc        1 MOL      0.083927
    152 H70        -7.6300   -0.2820   -1.7890 hc        1 MOL      0.083927
    153 H71        -9.0210   -0.5420   -0.0140 hc        1 MOL     -0.017054
    154 H72        -9.8170   -2.0600   -0.5920 hc        1 MOL     -0.017054
    155 H73       -10.8530   -1.0720   -2.4570 hc        1 MOL      0.045916
    156 H74       -10.1380    0.5880   -2.0100 hc        1 MOL      0.045916
    157 H75       -12.5760   -0.7250   -1.3440 hx        1 MOL      0.039622
    158 H76       -12.0730    1.0090   -1.3010 hx        1 MOL      0.039622
    159 H77       -11.8830   -0.9700    0.8360 hn        1 MOL      0.171482
    160 H78       -11.1210    0.5330    0.9170 hn        1 MOL      0.171482
    161 H79       -12.6970    0.4150    0.7670 hn        1 MOL      0.171482
    162 N14        -4.9560   -3.3260   -1.6120 n         1 MOL     -0.676680
    163 C49        -3.5170   -3.3290   -1.9840 c3        1 MOL      0.545772
    164 C50        -2.4260   -3.1290   -0.9060 c         1 MOL      0.230939
    165 O22        -2.0050   -2.0180   -0.5860 o         1 MOL     -0.559791
    166 C51        -3.2770   -4.4520   -3.0350 c3        1 MOL     -0.214854
    167 C52        -3.8290   -4.0870   -4.4600 c3        1 MOL     -0.331135
    168 C53        -3.3360   -5.1430   -5.5010 c         1 MOL      0.732686
    169 O23        -2.3520   -4.9220   -6.2710 o         1 MOL     -0.625084
    170 O24        -3.9150   -6.2320   -5.5520 o         1 MOL     -0.625084
    171 H80        -5.3680   -3.9740   -0.9520 hn        1 MOL      0.322375
    172 H81        -3.2820   -2.4470   -2.5840 h1        1 MOL      0.074142
    173 H82        -3.7620   -5.3950   -2.8020 hc        1 MOL      0.085396
    174 H83        -2.1930   -4.5440   -3.1660 hc        1 MOL      0.085396
    175 H84        -3.3490   -3.1400   -4.7220 hc        1 MOL      0.076988
    176 H85        -4.8920   -3.8820   -4.5540 hc        1 MOL      0.076988
    177 N15        -1.9300   -4.1670   -0.2160 n         1 MOL     -0.268973
    178 C54        -2.4160   -5.5940   -0.2490 c3        1 MOL     -0.123389
    179 H86        -3.2710   -5.7010    0.4180 h1        1 MOL      0.071084
    180 H87        -2.7150   -5.8530   -1.2650 h1        1 MOL      0.071084
    181 H88        -1.6170   -6.2580    0.0760 h1        1 MOL      0.071084
    182 H89        -1.0080   -3.9840    0.1620 hn        1 MOL      0.302678
    183 Ca1        -0.7430    0.2690   -0.8500 Ca        1 MOL      1.715829
    184 O25        -3.4050    0.2250   -1.5380 oh        1 MOL     -0.839050
    185 H90        -4.1390    0.0120   -0.9560 ho        1 MOL      0.413744
    186 H91        -3.8080    0.7350   -2.2410 ho        1 MOL      0.413744
    187 O26         1.2790   -0.9410   -2.1910 oh        1 MOL     -0.839050
    188 H92         1.2400   -0.4030   -2.9770 ho        1 MOL      0.413744
    189 H93         2.1820   -0.8660   -1.8860 ho        1 MOL      0.413744
    190 O27        -1.2630   -0.7690   -3.4040 oh        1 MOL     -0.839050
    191 H94        -1.5190   -0.4390   -4.2690 ho        1 MOL      0.413744
    192 H95        -0.8110   -1.5940   -3.5920 ho        1 MOL      0.413744
@<TRIPOS>BOND
     1    1    2 1   
     2    1    4 1   
     3    1    5 1   
     4    1    6 1   
     5    2    3 2   
     6    2    7 1   
     7    7    8 1   
     8    7   15 1   
     9    8    9 1   
    10    8   11 1   
    11    8   16 1   
    12    9   10 2   
    13    9   19 1   
    14   11   12 1   
    15   11   17 1   
    16   11   18 1   
    17   12   13 1   
    18   12   14 1   
    19   19   20 1   
    20   19   28 1   
    21   20   21 1   
    22   20   23 1   
    23   20   29 1   
    24   21   22 2   
    25   21   41 1   
    26   23   24 1   
    27   23   30 1   
    28   23   31 1   
    29   24   25 1   
    30   24   32 1   
    31   24   33 1   
    32   25   26 1   
    33   25   34 1   
    34   25   35 1   
    35   26   27 1   
    36   26   36 1   
    37   26   37 1   
    38   27   38 1   
    39   27   39 1   
    40   27   40 1   
    41   41   42 1   
    42   41   49 1   
    43   42   43 1   
    44   42   45 1   
    45   42   50 1   
    46   43   44 2   
    47   43   53 1   
    48   45   46 1   
    49   45   51 1   
    50   45   52 1   
    51   46   47 1   
    52   46   48 1   
    53   53   54 1   
    54   53   57 1   
    55   54   55 1   
    56   54   58 1   
    57   54   59 1   
    58   55   56 2   
    59   55   60 1   
    60   60   61 1   
    61   60   68 1   
    62   61   62 1   
    63   61   64 1   
    64   61   69 1   
    65   62   63 2   
    66   62   72 1   
    67   64   65 1   
    68   64   70 1   
    69   64   71 1   
    70   65   66 1   
    71   65   67 1   
    72   72   73 1   
    73   72   76 1   
    74   73   74 1   
    75   73   77 1   
    76   73   78 1   
    77   74   75 2   
    78   74   79 1   
    79   79   80 1   
    80   79   86 1   
    81   80   81 1   
    82   80   83 1   
    83   80   87 1   
    84   81   82 2   
    85   81   93 1   
    86   83   84 1   
    87   83   85 1   
    88   83   88 1   
    89   84   90 1   
    90   84   91 1   
    91   84   92 1   
    92   85   89 1   
    93   93   94 1   
    94   93  101 1   
    95   94   95 1   
    96   94   97 1   
    97   94  102 1   
    98   95   96 2   
    99   95  112 1   
   100   97   98 1   
   101   97   99 1   
   102   97  103 1   
   103   98  100 1   
   104   98  104 1   
   105   98  105 1   
   106   99  106 1   
   107   99  107 1   
   108   99  108 1   
   109  100  109 1   
   110  100  110 1   
   111  100  111 1   
   112  112  113 1   
   113  112  119 1   
   114  113  114 1   
   115  113  116 1   
   116  113  120 1   
   117  114  115 2   
   118  114  126 1   
   119  116  117 1   
   120  116  118 1   
   121  116  121 1   
   122  117  123 1   
   123  117  124 1   
   124  117  125 1   
   125  118  122 1   
   126  126  127 1   
   127  126  133 1   
   128  127  128 1   
   129  127  130 1   
   130  127  134 1   
   131  128  129 2   
   132  128  140 1   
   133  130  131 1   
   134  130  132 1   
   135  130  135 1   
   136  131  137 1   
   137  131  138 1   
   138  131  139 1   
   139  132  136 1   
   140  140  141 1   
   141  140  149 1   
   142  141  142 1   
   143  141  144 1   
   144  141  150 1   
   145  142  143 2   
   146  142  162 1   
   147  144  145 1   
   148  144  151 1   
   149  144  152 1   
   150  145  146 1   
   151  145  153 1   
   152  145  154 1   
   153  146  147 1   
   154  146  155 1   
   155  146  156 1   
   156  147  148 1   
   157  147  157 1   
   158  147  158 1   
   159  148  159 1   
   160  148  160 1   
   161  148  161 1   
   162  162  163 1   
   163  162  171 1   
   164  163  164 1   
   165  163  166 1   
   166  163  172 1   
   167  164  165 2   
   168  164  177 1   
   169  166  167 1   
   170  166  173 1   
   171  166  174 1   
   172  167  168 1   
   173  167  175 1   
   174  167  176 1   
   175  168  169 1   
   176  168  170 1   
   177  177  178 1   
   178  177  182 1   
   179  178  179 1   
   180  178  180 1   
   181  178  181 1   
   182  184  185 1   
   183  184  186 1   
   184  187  188 1   
   185  187  189 1   
   186  190  191 1   
   187  190  192 1   
@<TRIPOS>SUBSTRUCTURE
     1 MOL         1 TEMP              0 ****  ****    0 ROOT
