@<TRIPOS>MOLECULE
MOL
  175   173     1     0     0
SMALL
resp


@<TRIPOS>ATOM
      1 C1         -6.7280    7.7440    2.1520 c3        1 MOL     -0.472434
      2 C2         -7.5260    7.0020    1.0820 c         1 MOL      0.739832
      3 O1         -7.6620    7.4230   -0.0340 o         1 MOL     -0.583609
      4 H1         -6.3370    7.0280    2.8760 hc        1 MOL      0.112561
      5 H2         -5.9000    8.2780    1.6850 hc        1 MOL      0.112561
      6 H3         -7.3780    8.4560    2.6620 hc        1 MOL      0.112561
      7 N1         -8.0420    5.7880    1.3520 n         1 MOL     -0.542656
      8 C3         -8.8730    5.0500    0.3520 c3        1 MOL      0.095554
      9 C4         -8.1670    3.9420   -0.5100 c         1 MOL      0.556872
     10 O2         -8.8520    3.3640   -1.3640 o         1 MOL     -0.516359
     11 C5        -10.0970    4.4970    1.2640 c3        1 MOL     -0.215817
     12 C6        -11.2010    4.2000    0.3550 c         1 MOL      0.800062
     13 O3        -11.9560    5.0570   -0.1310 o         1 MOL     -0.749549
     14 O4        -11.5340    3.0190    0.2350 o         1 MOL     -0.749549
     15 H4         -7.7570    5.2430    2.1480 hn        1 MOL      0.284723
     16 H5         -9.3330    5.7360   -0.3460 h1        1 MOL      0.068697
     17 H6        -10.4900    5.2100    1.9910 hc        1 MOL      0.023968
     18 H7         -9.7580    3.6200    1.8110 hc        1 MOL      0.023968
     19 N2         -6.8900    3.6800   -0.2380 n         1 MOL     -0.556974
     20 C7         -6.0240    2.8020   -0.9860 c3        1 MOL      0.399395
     21 C8         -4.9780    2.1460   -0.0420 c         1 MOL      0.489426
     22 O5         -4.4850    2.7150    0.8940 o         1 MOL     -0.523382
     23 C9         -5.3630    3.6500   -2.1100 c3        1 MOL     -0.360059
     24 H8         -6.4310    4.1150    0.5510 hn        1 MOL      0.244053
     25 H9         -6.5540    1.9490   -1.4170 h1        1 MOL     -0.035402
     26 H10        -6.1080    3.8710   -2.8660 hc        1 MOL      0.101951
     27 H11        -4.9110    4.5470   -1.6770 hc        1 MOL      0.101951
     28 H12        -4.5320    3.0630   -2.5040 hc        1 MOL      0.101951
     29 N3         -4.5580    0.8930   -0.3050 n         1 MOL     -0.473987
     30 C10        -4.8810   -0.0600   -1.4350 c3        1 MOL      0.011884
     31 C11        -5.1490   -1.4560   -0.9560 c         1 MOL      0.450624
     32 O6         -4.6050   -1.9070    0.0900 o         1 MOL     -0.527479
     33 C12        -3.7690   -0.0380   -2.4610 c3        1 MOL     -0.180503
     34 C13        -2.4760   -0.5840   -1.9210 c         1 MOL      0.769656
     35 O7         -1.6840    0.1350   -1.2590 o         1 MOL     -0.720344
     36 O8         -2.1110   -1.7890   -2.0900 o         1 MOL     -0.720344
     37 H13        -3.8630    0.5280    0.3240 hn        1 MOL      0.312527
     38 H14        -5.8180    0.2840   -1.8660 h1        1 MOL      0.084123
     39 H15        -3.6250    0.9940   -2.7870 hc        1 MOL      0.031677
     40 H16        -4.0700   -0.6440   -3.3190 hc        1 MOL      0.031677
     41 N4         -5.9950   -2.1600   -1.6380 n         1 MOL     -0.309841
     42 C14        -6.4370   -3.5100   -1.2770 c3        1 MOL      0.023731
     43 C15        -6.1430   -4.5230   -2.4370 c         1 MOL      0.491288
     44 O9         -7.0670   -4.8670   -3.1690 o         1 MOL     -0.545669
     45 H17        -6.4640   -1.7090   -2.4210 hn        1 MOL      0.286497
     46 H18        -7.5040   -3.5670   -1.0610 h1        1 MOL      0.060625
     47 H19        -5.9180   -3.8470   -0.3720 h1        1 MOL      0.060625
     48 N5         -4.9290   -5.0870   -2.5920 n         1 MOL     -0.441610
     49 C16        -3.7210   -4.8170   -1.8530 c3        1 MOL      0.165250
     50 C17        -3.5810   -5.4440   -0.4230 c         1 MOL      0.397862
     51 O10        -3.3740   -6.6550   -0.3300 o         1 MOL     -0.531878
     52 C18        -2.4510   -5.1150   -2.7210 c3        1 MOL     -0.165995
     53 C19        -1.1110   -4.6950   -2.1540 c         1 MOL      0.727637
     54 N6         -0.0640   -4.6020   -2.8900 n         1 MOL     -0.762382
     55 O11        -1.0740   -4.2120   -1.0110 o         1 MOL     -0.769575
     56 H20        -4.9040   -5.8760   -3.2240 hn        1 MOL      0.290374
     57 H21        -3.8100   -3.7420   -1.6790 h1        1 MOL      0.017731
     58 H22        -2.6400   -4.6750   -3.7000 hc        1 MOL      0.050666
     59 H23        -2.4150   -6.1890   -2.8860 hc        1 MOL      0.050666
     60 H24        -0.1010   -4.9260   -3.8510 hn        1 MOL      0.358385
     61 H25         0.7410   -4.1160   -2.5270 hn        1 MOL      0.358385
     62 N7         -3.5660   -4.6100    0.6500 n         1 MOL     -0.119936
     63 C20        -3.4460   -5.0330    2.0570 c3        1 MOL     -0.399130
     64 C21        -2.0450   -5.2860    2.5930 c         1 MOL      0.564142
     65 O12        -1.8300   -5.7500    3.7530 o         1 MOL     -0.608172
     66 H26        -3.7500   -3.6260    0.5530 hn        1 MOL      0.244240
     67 H27        -4.0170   -5.9300    2.2840 h1        1 MOL      0.144864
     68 H28        -3.8400   -4.2620    2.7270 h1        1 MOL      0.144864
     69 N8         -1.0040   -5.0600    1.8110 n         1 MOL     -0.149064
     70 C22         0.3950   -5.1230    2.3220 c3        1 MOL     -0.137268
     71 C23         1.0810   -3.7890    2.3150 c         1 MOL      0.364833
     72 O13         0.5320   -2.8450    1.7720 o         1 MOL     -0.459345
     73 C24         1.1260   -6.2780    1.5840 c3        1 MOL      0.213018
     74 C25         0.4770   -7.6110    1.7550 c3        1 MOL     -0.147637
     75 O14         1.1310   -6.0670    0.2060 oh        1 MOL     -0.532199
     76 H29        -1.1850   -4.9320    0.8260 hn        1 MOL      0.360198
     77 H30         0.4110   -5.4670    3.3610 h1        1 MOL      0.101755
     78 H31         2.1340   -6.4610    1.9440 h1        1 MOL      0.046526
     79 H32         2.0290   -5.8450   -0.0530 ho        1 MOL      0.344619
     80 H33         0.7710   -7.9550    2.7490 hc        1 MOL      0.034338
     81 H34        -0.6150   -7.6540    1.6840 hc        1 MOL      0.034338
     82 H35         0.9170   -8.3290    1.0760 hc        1 MOL      0.034338
     83 N9          2.3070   -3.7500    2.8160 n         1 MOL     -0.197188
     84 C26         3.2380   -2.5980    2.7590 c3        1 MOL      0.055237
     85 C27         4.3540   -2.8930    1.7210 c         1 MOL      0.139886
     86 O15         5.1090   -3.8330    1.8680 o         1 MOL     -0.496406
     87 C28         3.9470   -2.3740    4.1220 c3        1 MOL      0.352328
     88 C29         5.0030   -1.3060    4.1790 c3        1 MOL      0.054605
     89 C30         2.8290   -2.1940    5.2440 c3        1 MOL     -0.484785
     90 C31         4.6620    0.0910    3.8000 c3        1 MOL     -0.067407
     91 H36         2.6700   -4.5930    3.2290 hn        1 MOL      0.194653
     92 H37         2.6520   -1.7400    2.4450 h1        1 MOL      0.024578
     93 H38         4.4020   -3.3280    4.3940 hc        1 MOL     -0.056291
     94 H39         5.8090   -1.5980    3.5150 hc        1 MOL     -0.032240
     95 H40         5.4500   -1.3040    5.1780 hc        1 MOL     -0.032240
     96 H41         2.3780   -1.2040    5.2580 hc        1 MOL      0.107160
     97 H42         1.9790   -2.8670    5.0860 hc        1 MOL      0.107160
     98 H43         3.3290   -2.4730    6.1720 hc        1 MOL      0.107160
     99 H44         3.8320    0.4470    4.4030 hc        1 MOL      0.008320
    100 H45         5.5230    0.7390    3.9740 hc        1 MOL      0.008320
    101 H46         4.5630    0.1270    2.7110 hc        1 MOL      0.008320
    102 N10         4.4290   -2.1190    0.6530 n         1 MOL     -0.054497
    103 C32         5.2330   -2.4540   -0.5170 c3        1 MOL     -0.070381
    104 C33         5.6970   -1.2280   -1.4060 c         1 MOL      0.478482
    105 O16         6.0100   -1.3710   -2.5830 o         1 MOL     -0.491678
    106 C34         4.3170   -3.4300   -1.4080 c3        1 MOL     -0.143883
    107 C35         3.0520   -2.8200   -2.0020 c         1 MOL      0.695759
    108 O17         2.0220   -2.9270   -1.3140 o         1 MOL     -0.678057
    109 O18         3.1420   -2.3630   -3.1730 o         1 MOL     -0.678057
    110 H47         3.7640   -1.3580    0.5630 hn        1 MOL      0.123445
    111 H48         6.1240   -2.9720   -0.1690 h1        1 MOL      0.091394
    112 H49         4.1470   -4.3300   -0.8200 hc        1 MOL      0.047047
    113 H50         4.9680   -3.8650   -2.1800 hc        1 MOL      0.047047
    114 N11         5.7940   -0.0680   -0.7520 n         1 MOL     -0.349100
    115 C36         6.4410    1.1080   -1.2690 c3        1 MOL      0.156856
    116 C37         5.8610    2.4190   -0.5780 c         1 MOL      0.236209
    117 O19         5.6100    2.4190    0.6250 o         1 MOL     -0.454618
    118 C38         7.9480    1.0240   -0.9690 c3        1 MOL     -0.408526
    119 C39         8.7340    2.1290   -1.6060 ca        1 MOL      0.271905
    120 C40         9.0190    3.2960   -0.8840 ca        1 MOL     -0.260879
    121 C41         9.1770    2.0180   -2.9350 ca        1 MOL     -0.260879
    122 C42         9.8900    4.2680   -1.4100 ca        1 MOL     -0.078813
    123 C43        10.0230    3.0350   -3.4690 ca        1 MOL     -0.078813
    124 C44        10.4330    4.0720   -2.6540 ca        1 MOL     -0.148033
    125 H51         5.5810   -0.0470    0.2380 hn        1 MOL      0.278891
    126 H52         6.3190    1.0920   -2.3520 h1        1 MOL      0.058001
    127 H53         8.3670    0.0790   -1.3240 hc        1 MOL      0.130114
    128 H54         8.1930    0.9530    0.0860 hc        1 MOL      0.130114
    129 H55         8.4490    3.3430    0.0270 ha        1 MOL      0.140320
    130 H56         9.1750    1.0780   -3.4610 ha        1 MOL      0.140320
    131 H57        10.2100    5.1120   -0.8180 ha        1 MOL      0.100607
    132 H58        10.4890    2.8100   -4.4130 ha        1 MOL      0.100607
    133 H59        11.1630    4.7970   -2.9690 ha        1 MOL      0.098137
    134 N12         5.7920    3.6010   -1.3690 n         1 MOL      0.131201
    135 C45         5.5880    4.9130   -0.7370 c3        1 MOL     -0.044404
    136 C46         4.4110    5.1630    0.1840 c         1 MOL      0.525347
    137 O20         4.4220    6.1850    0.8160 o         1 MOL     -0.572345
    138 C47         5.6290    5.9130   -1.9370 c3        1 MOL     -0.229637
    139 C48         5.1580    4.9790   -3.0970 c3        1 MOL      0.005303
    140 C49         5.7060    3.6170   -2.7880 c3        1 MOL     -0.313215
    141 H60         6.4660    5.0980   -0.1180 h1        1 MOL      0.040290
    142 H61         5.0090    6.7740   -1.6770 hc        1 MOL      0.102382
    143 H62         6.6710    6.1540   -2.1520 hc        1 MOL      0.102382
    144 H63         4.0820    4.8850   -2.9680 hc        1 MOL      0.029549
    145 H64         5.5230    5.3490   -4.0620 hc        1 MOL      0.029549
    146 H65         5.0450    2.8670   -3.2170 h1        1 MOL      0.131974
    147 H66         6.6740    3.5550   -3.2920 h1        1 MOL      0.131974
    148 N13         3.4710    4.2720    0.2960 n         1 MOL     -0.192044
    149 C50         2.1780    4.2900    1.1690 c3        1 MOL     -0.348070
    150 C51         2.4360    4.6540    2.6580 c         1 MOL      0.633255
    151 O21         1.5100    5.0980    3.3160 o         1 MOL     -0.538891
    152 C52         1.3430    2.9220    1.0380 c3        1 MOL     -0.075240
    153 C53         2.0930    1.6900    1.5090 c3        1 MOL     -0.216143
    154 C54         1.4060    0.4730    0.9160 c         1 MOL      0.723287
    155 O22         2.0130   -0.2820    0.1080 o         1 MOL     -0.708351
    156 O23         0.2350    0.2050    1.2130 o         1 MOL     -0.708351
    157 H67         3.5330    3.5510   -0.4160 hn        1 MOL      0.228031
    158 H68         1.5470    5.0320    0.6980 h1        1 MOL      0.150002
    159 H69         1.0710    2.8680   -0.0180 hc        1 MOL      0.112840
    160 H70         0.4370    3.0350    1.6360 hc        1 MOL      0.112840
    161 H71         1.9650    1.6820    2.5910 hc        1 MOL      0.065621
    162 H72         3.1530    1.6440    1.2230 hc        1 MOL      0.065621
    163 N14         3.6420    4.4120    3.1930 n         1 MOL     -0.326992
    164 C55         4.0070    4.8590    4.5460 c3        1 MOL     -0.046600
    165 H73         4.4840    4.0390    5.0830 h1        1 MOL      0.055839
    166 H74         4.6990    5.6990    4.4780 h1        1 MOL      0.055839
    167 H75         3.1100    5.1690    5.0810 h1        1 MOL      0.055839
    168 H76         4.3660    4.1800    2.5350 hn        1 MOL      0.244861
    169 Ca1        -0.0120   -1.7350   -0.4910 Ca        1 MOL      1.691894
    170 O24         0.8250   -0.3800   -2.7600 oh        1 MOL     -0.841392
    171 H77         0.5550   -0.0540   -3.6260 ho        1 MOL      0.395308
    172 H78         1.6590   -0.8140   -2.9180 ho        1 MOL      0.395308
    173 O25        -2.1160   -1.7860    1.2290 oh        1 MOL     -0.841392
    174 H79        -2.0620   -1.3230    2.0710 ho        1 MOL      0.395308
    175 H80        -3.0050   -1.6070    0.9220 ho        1 MOL      0.395308
@<TRIPOS>BOND
     1    1    2 1   
     2    1    4 1   
     3    1    5 1   
     4    1    6 1   
     5    2    3 2   
     6    2    7 1   
     7    7    8 1   
     8    7   15 1   
     9    8    9 1   
    10    8   11 1   
    11    8   16 1   
    12    9   10 2   
    13    9   19 1   
    14   11   12 1   
    15   11   17 1   
    16   11   18 1   
    17   12   13 1   
    18   12   14 1   
    19   19   20 1   
    20   19   24 1   
    21   20   21 1   
    22   20   23 1   
    23   20   25 1   
    24   21   22 2   
    25   21   29 1   
    26   23   26 1   
    27   23   27 1   
    28   23   28 1   
    29   29   30 1   
    30   29   37 1   
    31   30   31 1   
    32   30   33 1   
    33   30   38 1   
    34   31   32 2   
    35   31   41 1   
    36   33   34 1   
    37   33   39 1   
    38   33   40 1   
    39   34   35 1   
    40   34   36 1   
    41   41   42 1   
    42   41   45 1   
    43   42   43 1   
    44   42   46 1   
    45   42   47 1   
    46   43   44 2   
    47   43   48 1   
    48   48   49 1   
    49   48   56 1   
    50   49   50 1   
    51   49   52 1   
    52   49   57 1   
    53   50   51 2   
    54   50   62 1   
    55   52   53 1   
    56   52   58 1   
    57   52   59 1   
    58   53   54 1   
    59   53   55 2   
    60   54   60 1   
    61   54   61 1   
    62   62   63 1   
    63   62   66 1   
    64   63   64 1   
    65   63   67 1   
    66   63   68 1   
    67   64   65 2   
    68   64   69 1   
    69   69   70 1   
    70   69   76 1   
    71   70   71 1   
    72   70   73 1   
    73   70   77 1   
    74   71   72 2   
    75   71   83 1   
    76   73   74 1   
    77   73   75 1   
    78   73   78 1   
    79   74   80 1   
    80   74   81 1   
    81   74   82 1   
    82   75   79 1   
    83   83   84 1   
    84   83   91 1   
    85   84   85 1   
    86   84   87 1   
    87   84   92 1   
    88   85   86 2   
    89   85  102 1   
    90   87   88 1   
    91   87   89 1   
    92   87   93 1   
    93   88   90 1   
    94   88   94 1   
    95   88   95 1   
    96   89   96 1   
    97   89   97 1   
    98   89   98 1   
    99   90   99 1   
   100   90  100 1   
   101   90  101 1   
   102  102  103 1   
   103  102  110 1   
   104  103  104 1   
   105  103  106 1   
   106  103  111 1   
   107  104  105 2   
   108  104  114 1   
   109  106  107 1   
   110  106  112 1   
   111  106  113 1   
   112  107  108 1   
   113  107  109 1   
   114  114  115 1   
   115  114  125 1   
   116  115  116 1   
   117  115  118 1   
   118  115  126 1   
   119  116  117 2   
   120  116  134 1   
   121  118  119 1   
   122  118  127 1   
   123  118  128 1   
   124  119  120 ar  
   125  119  121 ar  
   126  120  122 ar  
   127  120  129 1   
   128  121  123 ar  
   129  121  130 1   
   130  122  124 ar  
   131  122  131 1   
   132  123  124 ar  
   133  123  132 1   
   134  124  133 1   
   135  134  135 1   
   136  134  140 1   
   137  135  136 1   
   138  135  138 1   
   139  135  141 1   
   140  136  137 2   
   141  136  148 1   
   142  138  139 1   
   143  138  142 1   
   144  138  143 1   
   145  139  140 1   
   146  139  144 1   
   147  139  145 1   
   148  140  146 1   
   149  140  147 1   
   150  148  149 1   
   151  148  157 1   
   152  149  150 1   
   153  149  152 1   
   154  149  158 1   
   155  150  151 2   
   156  150  163 1   
   157  152  153 1   
   158  152  159 1   
   159  152  160 1   
   160  153  154 1   
   161  153  161 1   
   162  153  162 1   
   163  154  155 1   
   164  154  156 1   
   165  163  164 1   
   166  163  168 1   
   167  164  165 1   
   168  164  166 1   
   169  164  167 1   
   170  170  171 1   
   171  170  172 1   
   172  173  174 1   
   173  173  175 1   
@<TRIPOS>SUBSTRUCTURE
     1 MOL         1 TEMP              0 ****  ****    0 ROOT
