@<TRIPOS>MOLECULE
MOL
  195   189     1     0     0
SMALL
resp


@<TRIPOS>ATOM
      1 C1         -4.0120   -4.2280   -4.2140 c3        1 MOL     -0.465588
      2 C2         -4.6150   -3.4690   -2.9690 c         1 MOL      0.771263
      3 O1         -3.9660   -3.3250   -1.9350 o         1 MOL     -0.612204
      4 H1         -3.2560   -4.9360   -3.8760 hc        1 MOL      0.111837
      5 H2         -4.8060   -4.7650   -4.7330 hc        1 MOL      0.111837
      6 H3         -3.5550   -3.5070   -4.8930 hc        1 MOL      0.111837
      7 N1         -5.8040   -2.9860   -3.0650 n         1 MOL     -0.741140
      8 C3         -6.5780   -2.2060   -2.0240 c3        1 MOL      0.369977
      9 C4         -5.8010   -0.9000   -1.4870 c         1 MOL      0.221855
     10 O2         -5.5450   -0.7030   -0.3140 o         1 MOL     -0.436814
     11 C5         -7.2310   -3.1130   -0.9410 c3        1 MOL     -0.149946
     12 C6         -6.2590   -4.0130   -0.1080 c         1 MOL      0.833197
     13 O3         -6.3760   -5.2590   -0.0520 o         1 MOL     -0.755055
     14 O4         -5.3390   -3.3860    0.4790 o         1 MOL     -0.755055
     15 H4         -6.3100   -3.4570   -3.7990 hn        1 MOL      0.332208
     16 H5         -7.4490   -1.8000   -2.5230 h1        1 MOL      0.027982
     17 H6         -7.9990   -3.7890   -1.3150 hc        1 MOL      0.024860
     18 H7         -7.6610   -2.4550   -0.1860 hc        1 MOL      0.024860
     19 N2         -5.3340   -0.0980   -2.4530 n         1 MOL     -0.355794
     20 C7         -4.6930    1.2700   -2.3860 c3        1 MOL      0.024335
     21 C8         -5.5920    2.3540   -1.7690 c         1 MOL      0.336891
     22 O5         -5.7740    3.4380   -2.2850 o         1 MOL     -0.522874
     23 C9         -3.3060    1.2030   -1.7400 c3        1 MOL     -0.102387
     24 C10        -2.5120    2.5760   -1.9080 c3        1 MOL      0.143604
     25 C11        -2.4310    0.0860   -2.3360 c3        1 MOL      0.107895
     26 C12        -2.1300    3.0960   -3.2250 c3        1 MOL     -0.334481
     27 H8         -5.3690   -0.5160   -3.3770 hn        1 MOL      0.260402
     28 H9         -4.4020    1.5480   -3.4040 h1        1 MOL      0.062596
     29 H10        -3.3620    1.0490   -0.6590 hc        1 MOL     -0.045681
     30 H11        -1.6230    2.4350   -1.2930 hc        1 MOL      0.002474
     31 H12        -3.0040    3.3470   -1.2980 hc        1 MOL      0.002474
     32 H13        -2.4850   -0.0030   -3.4160 hc        1 MOL     -0.001781
     33 H14        -1.3590    0.0990   -2.1480 hc        1 MOL     -0.001781
     34 H15        -2.8630   -0.8680   -2.0230 hc        1 MOL     -0.001781
     35 H16        -1.9160    2.3690   -4.0140 hc        1 MOL      0.073747
     36 H17        -2.7810    3.8980   -3.5560 hc        1 MOL      0.073747
     37 H18        -1.1880    3.6180   -3.0730 hc        1 MOL      0.073747
     38 N3         -6.1320    2.0640   -0.5720 n         1 MOL     -0.127836
     39 C13        -6.9880    2.8990    0.3260 c3        1 MOL      0.043693
     40 C14        -6.3780    4.2610    0.7330 c         1 MOL      0.565095
     41 O6         -7.0070    5.2900    0.4790 o         1 MOL     -0.611716
     42 C15        -7.6680    2.0310    1.4480 c3        1 MOL     -0.333208
     43 C16        -8.4520    0.8530    0.8330 c         1 MOL      0.737085
     44 O7         -8.8450    0.8160   -0.3450 o         1 MOL     -0.730857
     45 O8         -8.6860   -0.1400    1.5440 o         1 MOL     -0.730857
     46 H19        -5.9210    1.1450   -0.2040 hn        1 MOL      0.318680
     47 H20        -7.7750    3.2070   -0.3530 h1        1 MOL      0.043397
     48 H21        -8.2370    2.7040    2.1040 hc        1 MOL      0.092557
     49 H22        -6.9530    1.5460    2.1070 hc        1 MOL      0.092557
     50 N4         -5.1710    4.4520    1.1700 n         1 MOL     -0.520529
     51 C17        -4.2200    3.4960    1.7130 c3        1 MOL      0.278241
     52 C18        -4.3670    3.2970    3.2320 c         1 MOL      0.422385
     53 O9         -5.4550    3.5390    3.7480 o         1 MOL     -0.552505
     54 H23        -4.9470    5.4330    1.2670 hn        1 MOL      0.287602
     55 H24        -3.2420    3.8180    1.3570 h1        1 MOL      0.013122
     56 H25        -4.4170    2.5130    1.2650 h1        1 MOL      0.013122
     57 N5         -3.3560    2.9750    4.0210 n         1 MOL     -0.456766
     58 C19        -1.9450    2.7370    3.7060 c3        1 MOL      0.196298
     59 C20        -1.7540    1.6540    2.6420 c         1 MOL      0.478262
     60 O10        -2.6210    0.7790    2.5600 o         1 MOL     -0.525814
     61 C21        -1.0990    2.5190    4.9890 c3        1 MOL     -0.239540
     62 C22        -1.1990    3.6040    6.0270 c         1 MOL      0.742379
     63 O11        -1.6000    3.1940    7.1070 o         1 MOL     -0.729113
     64 O12        -0.8550    4.7520    5.7300 o         1 MOL     -0.729113
     65 H26        -3.7180    2.8820    4.9490 hn        1 MOL      0.334171
     66 H27        -1.5440    3.6310    3.2230 h1        1 MOL     -0.024606
     67 H28        -0.0370    2.5150    4.7450 hc        1 MOL      0.056395
     68 H29        -1.4740    1.6360    5.5080 hc        1 MOL      0.056395
     69 N6         -0.6410    1.5600    1.8230 n         1 MOL     -0.513574
     70 C23         0.4330    2.4990    1.6920 c3        1 MOL     -0.102985
     71 C24         0.2330    3.5590    0.5670 c         1 MOL      0.637990
     72 O13        -0.8400    4.1760    0.4660 o         1 MOL     -0.455205
     73 H30        -0.7640    0.8720    1.0830 hn        1 MOL      0.380394
     74 H31         1.4060    2.0320    1.5180 h1        1 MOL      0.090196
     75 H32         0.5300    3.0540    2.6290 h1        1 MOL      0.090196
     76 N7          1.2700    3.9160   -0.2270 n         1 MOL     -0.656828
     77 C25         1.3790    5.0580   -1.1590 c3        1 MOL      0.120000
     78 C26         2.0960    4.7150   -2.4530 c         1 MOL      0.529105
     79 O14         2.1610    5.5730   -3.3140 o         1 MOL     -0.513648
     80 C27         1.9330    6.2940   -0.3460 c3        1 MOL     -0.033966
     81 C28         1.7620    7.7030   -0.9130 c3        1 MOL      0.023701
     82 C29         2.6410    8.7470   -0.3110 c         1 MOL      0.559876
     83 N8          2.4680    9.2280    0.9310 n         1 MOL     -0.784619
     84 O15         3.5630    9.1920   -0.9770 o         1 MOL     -0.571369
     85 H33         2.1260    3.4240   -0.0620 hn        1 MOL      0.275576
     86 H34         0.3740    5.2810   -1.4940 h1        1 MOL      0.054420
     87 H35         2.9960    6.0710   -0.3570 hc        1 MOL      0.026984
     88 H36         1.5730    6.2780    0.6820 hc        1 MOL      0.026984
     89 H37         0.7530    8.1100   -0.8710 hc        1 MOL      0.013458
     90 H38         2.1090    7.5970   -1.9470 hc        1 MOL      0.013458
     91 H39         1.7770    8.8380    1.5560 hn        1 MOL      0.367791
     92 H40         3.2690    9.8280    1.0790 hn        1 MOL      0.367791
     93 N9          2.7100    3.5280   -2.6460 n         1 MOL     -0.311481
     94 C30         3.4330    3.1150   -3.9170 c3        1 MOL     -0.284691
     95 C31         4.8590    2.6200   -3.6910 c         1 MOL      0.566955
     96 O16         5.6190    2.3840   -4.6490 o         1 MOL     -0.538518
     97 C32         2.6290    2.1830   -4.8360 c3        1 MOL      0.229111
     98 C33         1.4790    2.9300   -5.4980 c3        1 MOL     -0.230573
     99 C34         1.9640    0.9810   -4.0620 c3        1 MOL     -0.230573
    100 H41         2.6600    2.8080   -1.9400 hn        1 MOL      0.288521
    101 H42         3.5750    3.9890   -4.5620 h1        1 MOL      0.175957
    102 H43         3.2550    1.8280   -5.6600 hc        1 MOL      0.011249
    103 H44         0.6860    3.1070   -4.7800 hc        1 MOL      0.054188
    104 H45         1.9130    3.8430   -5.8910 hc        1 MOL      0.054188
    105 H46         1.0240    2.3920   -6.3300 hc        1 MOL      0.054188
    106 H47         1.4360    1.4410   -3.2350 hc        1 MOL      0.054188
    107 H48         1.1780    0.4760   -4.6340 hc        1 MOL      0.054188
    108 H49         2.7010    0.2140   -3.8370 hc        1 MOL      0.054188
    109 N10         5.3030    2.5680   -2.4060 n         1 MOL     -0.361728
    110 C35         6.6940    2.1910   -2.0920 c3        1 MOL      0.029444
    111 C36         6.9320    0.8490   -1.2690 c         1 MOL      0.570989
    112 O17         8.0410    0.3340   -1.1740 o         1 MOL     -0.582420
    113 C37         7.3980    3.3720   -1.4050 c3        1 MOL     -0.197593
    114 C38         6.8410    3.6450   -0.0040 c         1 MOL      0.569140
    115 N11         7.5770    4.3610    0.7610 n         1 MOL     -0.644755
    116 O18         5.8770    3.0290    0.4520 o         1 MOL     -0.521740
    117 H50         4.7320    2.8800   -1.6270 hn        1 MOL      0.209310
    118 H51         7.2020    2.0480   -3.0400 h1        1 MOL      0.095658
    119 H52         7.3070    4.2910   -1.9830 hc        1 MOL      0.072829
    120 H53         8.4720    3.2220   -1.2830 hc        1 MOL      0.072829
    121 H54         8.3250    4.9450    0.4220 hn        1 MOL      0.319017
    122 H55         7.2530    4.8050    1.6180 hn        1 MOL      0.319017
    123 N12         5.9070    0.1640   -0.8160 n         1 MOL     -0.433329
    124 C39         6.0180   -1.0470    0.0690 c3        1 MOL      0.163561
    125 C40         4.8020   -1.8960   -0.0050 c         1 MOL      0.430440
    126 O19         3.6880   -1.4320   -0.3270 o         1 MOL     -0.465394
    127 C41         6.0670   -0.5100    1.5080 c3        1 MOL     -0.256974
    128 C42         6.5330   -1.4130    2.5840 ca        1 MOL      0.187555
    129 C43         5.6720   -1.6810    3.6590 ca        1 MOL     -0.231222
    130 C44         7.8550   -1.7920    2.7060 ca        1 MOL     -0.231222
    131 C45         6.1430   -2.3740    4.7850 ca        1 MOL     -0.255547
    132 C46         8.2650   -2.6250    3.7940 ca        1 MOL     -0.255547
    133 C47         7.4120   -2.8990    4.8790 ca        1 MOL      0.370796
    134 O20         7.8090   -3.5790    5.9630 oh        1 MOL     -0.542255
    135 H56         4.9820    0.5470   -0.8960 hn        1 MOL      0.224392
    136 H57         6.9480   -1.5710   -0.1060 h1        1 MOL      0.054211
    137 H58         5.1130   -0.0960    1.8400 hc        1 MOL      0.119720
    138 H59         6.6910    0.3910    1.5160 hc        1 MOL      0.119720
    139 H60         4.6810   -1.2670    3.8040 ha        1 MOL      0.152641
    140 H61         8.4720   -1.4360    1.8940 ha        1 MOL      0.152641
    141 H62         5.4560   -2.5440    5.6030 ha        1 MOL      0.138954
    142 H63         9.2920   -2.9420    3.8380 ha        1 MOL      0.138954
    143 H64         6.9740   -3.8200    6.3810 ho        1 MOL      0.408925
    144 N13         4.9840   -3.1300    0.5180 n         1 MOL     -0.496508
    145 C48         4.1040   -4.2490    0.8130 c3        1 MOL      0.022859
    146 C49         3.2100   -4.7080   -0.3780 c         1 MOL      0.555238
    147 O21         2.8050   -5.8710   -0.4780 o         1 MOL     -0.612249
    148 C50         3.2010   -3.8730    2.1030 c3        1 MOL      0.162114
    149 C51         2.3700   -5.0820    2.5580 c3        1 MOL     -0.400842
    150 C52         1.6780   -4.9550    3.9620 c         1 MOL      0.691805
    151 O22         0.4230   -5.0030    3.9430 o         1 MOL     -0.670467
    152 O23         2.3530   -4.7320    4.9710 o         1 MOL     -0.670467
    153 H65         5.9350   -3.4430    0.5800 hn        1 MOL      0.276062
    154 H66         4.6160   -5.1300    1.1920 h1        1 MOL      0.075189
    155 H67         2.5190   -3.0510    1.8760 hc        1 MOL      0.023691
    156 H68         3.8540   -3.5790    2.9270 hc        1 MOL      0.023691
    157 H69         3.1100   -5.8780    2.5730 hc        1 MOL      0.077832
    158 H70         1.6350   -5.2420    1.7680 hc        1 MOL      0.077832
    159 N14         2.9810   -3.9400   -1.4580 n         1 MOL     -0.483965
    160 C53         2.0490   -4.2890   -2.5020 c3        1 MOL      0.098340
    161 C54         2.6750   -5.1600   -3.6420 c         1 MOL      0.383898
    162 O24         2.2190   -4.9840   -4.7730 o         1 MOL     -0.535848
    163 C55         1.4120   -2.9270   -2.9620 c3        1 MOL      0.049350
    164 C56        -0.1350   -3.0260   -3.1030 c3        1 MOL      0.001926
    165 C57        -0.7580   -3.2860   -1.7190 c         1 MOL      0.816136
    166 O25        -1.0410   -4.4710   -1.2900 o         1 MOL     -0.787847
    167 O26        -1.0000   -2.2710   -1.0230 o         1 MOL     -0.787847
    168 H71         3.4160   -3.0280   -1.4130 hn        1 MOL      0.221145
    169 H72         1.2950   -4.9740   -2.0980 h1        1 MOL      0.131509
    170 H73         1.8840   -2.6000   -3.8860 hc        1 MOL      0.008586
    171 H74         1.6570   -2.1100   -2.2880 hc        1 MOL      0.008586
    172 H75        -0.5160   -3.8310   -3.7340 hc        1 MOL     -0.034446
    173 H76        -0.4830   -2.0750   -3.5090 hc        1 MOL     -0.034446
    174 N15         3.6470   -6.0240   -3.4350 n         1 MOL     -0.201559
    175 C58         4.3020   -6.8850   -4.3730 c3        1 MOL     -0.085022
    176 H77         5.2240   -6.4150   -4.7140 h1        1 MOL      0.051509
    177 H78         4.5350   -7.8360   -3.8930 h1        1 MOL      0.051509
    178 H79         3.6460   -7.0600   -5.2260 h1        1 MOL      0.051509
    179 H80         4.1790   -5.9600   -2.5710 hn        1 MOL      0.223519
    180 Ca1        -2.7280   -3.7230    0.5230 Ca        1 MOL      1.729621
    181 O27        -3.2340   -1.1880    0.8710 oh        1 MOL     -0.824912
    182 H81        -2.9760   -0.4370    1.4070 ho        1 MOL      0.394455
    183 H82        -4.1210   -0.9800    0.5810 ho        1 MOL      0.394455
    184 O28        -0.8300   -3.0040    2.7000 oh        1 MOL     -0.824912
    185 H83        -0.3750   -3.6100    3.2780 ho        1 MOL      0.394455
    186 H84        -0.6010   -2.1380    3.0430 ho        1 MOL      0.394455
    187 O29        -1.6190   -5.9340    1.8480 oh        1 MOL     -0.824912
    188 H85        -0.7720   -5.7060    2.2380 ho        1 MOL      0.394455
    189 H86        -1.5350   -6.8490    1.5850 ho        1 MOL      0.394455
    190 O30        -3.6690   -5.9510   -0.3460 oh        1 MOL     -0.824912
    191 H87        -4.6210   -5.8730   -0.3290 ho        1 MOL      0.394455
    192 H88        -3.5070   -6.8950   -0.4440 ho        1 MOL      0.394455
    193 O31        -4.2180   -4.2610    2.7810 oh        1 MOL     -0.824912
    194 H89        -4.9430   -3.8580    2.3070 ho        1 MOL      0.394455
    195 H90        -4.5850   -4.4720    3.6360 ho        1 MOL      0.394455
@<TRIPOS>BOND
     1    1    2 1   
     2    1    4 1   
     3    1    5 1   
     4    1    6 1   
     5    2    3 2   
     6    2    7 1   
     7    7    8 1   
     8    7   15 1   
     9    8    9 1   
    10    8   11 1   
    11    8   16 1   
    12    9   10 2   
    13    9   19 1   
    14   11   12 1   
    15   11   17 1   
    16   11   18 1   
    17   12   13 1   
    18   12   14 1   
    19   19   20 1   
    20   19   27 1   
    21   20   21 1   
    22   20   23 1   
    23   20   28 1   
    24   21   22 2   
    25   21   38 1   
    26   23   24 1   
    27   23   25 1   
    28   23   29 1   
    29   24   26 1   
    30   24   30 1   
    31   24   31 1   
    32   25   32 1   
    33   25   33 1   
    34   25   34 1   
    35   26   35 1   
    36   26   36 1   
    37   26   37 1   
    38   38   39 1   
    39   38   46 1   
    40   39   40 1   
    41   39   42 1   
    42   39   47 1   
    43   40   41 2   
    44   40   50 1   
    45   42   43 1   
    46   42   48 1   
    47   42   49 1   
    48   43   44 1   
    49   43   45 1   
    50   50   51 1   
    51   50   54 1   
    52   51   52 1   
    53   51   55 1   
    54   51   56 1   
    55   52   53 2   
    56   52   57 1   
    57   57   58 1   
    58   57   65 1   
    59   58   59 1   
    60   58   61 1   
    61   58   66 1   
    62   59   60 2   
    63   59   69 1   
    64   61   62 1   
    65   61   67 1   
    66   61   68 1   
    67   62   63 1   
    68   62   64 1   
    69   69   70 1   
    70   69   73 1   
    71   70   71 1   
    72   70   74 1   
    73   70   75 1   
    74   71   72 2   
    75   71   76 1   
    76   76   77 1   
    77   76   85 1   
    78   77   78 1   
    79   77   80 1   
    80   77   86 1   
    81   78   79 2   
    82   78   93 1   
    83   80   81 1   
    84   80   87 1   
    85   80   88 1   
    86   81   82 1   
    87   81   89 1   
    88   81   90 1   
    89   82   83 1   
    90   82   84 2   
    91   83   91 1   
    92   83   92 1   
    93   93   94 1   
    94   93  100 1   
    95   94   95 1   
    96   94   97 1   
    97   94  101 1   
    98   95   96 2   
    99   95  109 1   
   100   97   98 1   
   101   97   99 1   
   102   97  102 1   
   103   98  103 1   
   104   98  104 1   
   105   98  105 1   
   106   99  106 1   
   107   99  107 1   
   108   99  108 1   
   109  109  110 1   
   110  109  117 1   
   111  110  111 1   
   112  110  113 1   
   113  110  118 1   
   114  111  112 2   
   115  111  123 1   
   116  113  114 1   
   117  113  119 1   
   118  113  120 1   
   119  114  115 1   
   120  114  116 2   
   121  115  121 1   
   122  115  122 1   
   123  123  124 1   
   124  123  135 1   
   125  124  125 1   
   126  124  127 1   
   127  124  136 1   
   128  125  126 2   
   129  125  144 1   
   130  127  128 1   
   131  127  137 1   
   132  127  138 1   
   133  128  129 ar  
   134  128  130 ar  
   135  129  131 ar  
   136  129  139 1   
   137  130  132 ar  
   138  130  140 1   
   139  131  133 ar  
   140  131  141 1   
   141  132  133 ar  
   142  132  142 1   
   143  133  134 1   
   144  134  143 1   
   145  144  145 1   
   146  144  153 1   
   147  145  146 1   
   148  145  148 1   
   149  145  154 1   
   150  146  147 2   
   151  146  159 1   
   152  148  149 1   
   153  148  155 1   
   154  148  156 1   
   155  149  150 1   
   156  149  157 1   
   157  149  158 1   
   158  150  151 1   
   159  150  152 1   
   160  159  160 1   
   161  159  168 1   
   162  160  161 1   
   163  160  163 1   
   164  160  169 1   
   165  161  162 2   
   166  161  174 1   
   167  163  164 1   
   168  163  170 1   
   169  163  171 1   
   170  164  165 1   
   171  164  172 1   
   172  164  173 1   
   173  165  166 1   
   174  165  167 1   
   175  174  175 1   
   176  174  179 1   
   177  175  176 1   
   178  175  177 1   
   179  175  178 1   
   180  181  182 1   
   181  181  183 1   
   182  184  185 1   
   183  184  186 1   
   184  187  188 1   
   185  187  189 1   
   186  190  191 1   
   187  190  192 1   
   188  193  194 1   
   189  193  195 1   
@<TRIPOS>SUBSTRUCTURE
     1 MOL         1 TEMP              0 ****  ****    0 ROOT
