@<TRIPOS>MOLECULE
MOL
  189   185     1     0     0
SMALL
resp


@<TRIPOS>ATOM
      1 C1        -11.6340    4.8930    1.9820 c3        1 MOL     -0.216563
      2 C2        -10.9670    3.9470    0.8610 c         1 MOL      0.471095
      3 O1        -11.6360    2.9390    0.5350 o         1 MOL     -0.529916
      4 H1        -12.5540    4.4340    2.3430 hc        1 MOL      0.070058
      5 H2        -10.9400    5.0170    2.8130 hc        1 MOL      0.070058
      6 H3        -11.8600    5.8670    1.5480 hc        1 MOL      0.070058
      7 N1         -9.7770    4.1870    0.2320 n         1 MOL     -0.061105
      8 C3         -9.3180    3.4880   -0.9800 c3        1 MOL     -0.608326
      9 C4         -8.0670    2.6550   -0.8980 c         1 MOL      0.791054
     10 O2         -6.9760    3.1130   -0.5400 o         1 MOL     -0.726977
     11 C5         -9.1690    4.4960   -2.1410 c3        1 MOL      0.395881
     12 C6         -8.4200    5.8100   -1.9150 c         1 MOL      0.461987
     13 O3         -7.9470    5.9590   -0.7930 o         1 MOL     -0.634672
     14 O4         -8.4230    6.6160   -2.8200 o         1 MOL     -0.634672
     15 H4         -9.2350    4.9870    0.5160 hn        1 MOL      0.071165
     16 H5        -10.1010    2.8210   -1.3450 h1        1 MOL      0.142670
     17 H6        -10.1750    4.7920   -2.4320 hc        1 MOL     -0.019640
     18 H7         -8.7490    4.0500   -3.0510 hc        1 MOL     -0.019640
     19 N2         -8.1900    1.4090   -1.1660 n         1 MOL     -0.481098
     20 C7         -7.1390    0.4800   -0.7680 c3        1 MOL     -0.088225
     21 C8         -5.8320    0.7420   -1.5820 c         1 MOL      0.968549
     22 O5         -5.8270    0.6090   -2.7840 o         1 MOL     -0.588953
     23 C9         -7.5410   -0.9840   -0.8880 c3        1 MOL     -0.404492
     24 C10        -6.7150   -2.0570   -0.2630 c3        1 MOL      0.083162
     25 C11        -7.5540   -3.3330   -0.0920 c3        1 MOL     -0.159565
     26 C12        -6.8040   -4.3610    0.7460 c3        1 MOL      0.135658
     27 N3         -7.6230   -5.5210    1.0720 n4        1 MOL     -0.366013
     28 H8         -9.0900    1.0990   -1.5180 hn        1 MOL      0.324841
     29 H9         -6.8560    0.6810    0.2750 h1        1 MOL      0.114908
     30 H10        -7.6340   -1.3090   -1.9260 hc        1 MOL      0.148065
     31 H11        -8.5480   -1.0400   -0.4790 hc        1 MOL      0.148065
     32 H12        -6.4910   -1.8740    0.7850 hc        1 MOL      0.043051
     33 H13        -5.8630   -2.1720   -0.9350 hc        1 MOL      0.043051
     34 H14        -7.7270   -3.8440   -1.0420 hc        1 MOL      0.069099
     35 H15        -8.5670   -3.2880    0.3160 hc        1 MOL      0.069099
     36 H16        -6.3860   -3.9250    1.6570 hx        1 MOL      0.060931
     37 H17        -5.9530   -4.6130    0.1130 hx        1 MOL      0.060931
     38 H18        -8.3980   -5.3050    1.6800 hn        1 MOL      0.293785
     39 H19        -7.9170   -6.0510    0.2630 hn        1 MOL      0.293785
     40 H20        -7.1660   -6.1790    1.6820 hn        1 MOL      0.293785
     41 N4         -4.7600    1.0800   -0.8900 n         1 MOL     -0.826563
     42 C13        -3.4130    0.9950   -1.3720 c3        1 MOL      0.520008
     43 C14        -2.3890    0.5160   -0.3220 c         1 MOL      0.239766
     44 O6         -2.5410    0.7880    0.8530 o         1 MOL     -0.413314
     45 C15        -2.9860    2.3590   -1.9380 c3        1 MOL     -0.392981
     46 C16        -3.1160    3.4560   -0.9010 c         1 MOL      0.853873
     47 O7         -2.1270    3.5660   -0.0910 o         1 MOL     -0.757188
     48 O8         -4.0140    4.3630   -1.0320 o         1 MOL     -0.757188
     49 H21        -4.8160    1.2430    0.1020 hn        1 MOL      0.230374
     50 H22        -3.3770    0.3100   -2.2210 h1        1 MOL     -0.010572
     51 H23        -3.6260    2.6070   -2.7820 hc        1 MOL      0.113910
     52 H24        -1.9130    2.3690   -2.1440 hc        1 MOL      0.113910
     53 N5         -1.2210   -0.0390   -0.7300 n         1 MOL     -0.198796
     54 C17        -0.7450   -0.4300   -2.1060 c3        1 MOL     -0.172885
     55 C18        -1.2860   -1.7730   -2.4200 c         1 MOL      0.678979
     56 O9         -2.5030   -2.0020   -2.3310 o         1 MOL     -0.566486
     57 H25        -0.6520   -0.3730    0.0370 hn        1 MOL      0.214026
     58 H26         0.3220   -0.6710   -2.0450 h1        1 MOL      0.075835
     59 H27        -0.9350    0.3250   -2.8670 h1        1 MOL      0.075835
     60 N6         -0.4150   -2.6600   -2.9130 n         1 MOL     -0.508957
     61 C19        -0.7790   -4.0160   -3.3380 c3        1 MOL      0.073453
     62 C20        -0.1540   -5.0130   -2.3440 c         1 MOL      0.338071
     63 O10         1.0010   -4.8390   -1.9170 o         1 MOL     -0.455765
     64 C21        -0.2300   -4.1000   -4.7650 c3        1 MOL     -0.036235
     65 C22        -0.3660   -5.4890   -5.3980 c         1 MOL      0.633464
     66 O11         0.5710   -5.8260   -6.1190 o         1 MOL     -0.676998
     67 O12        -1.4070   -6.1840   -5.1140 o         1 MOL     -0.676998
     68 H28         0.5170   -2.3680   -3.1630 hn        1 MOL      0.292217
     69 H29        -1.8350   -4.2860   -3.3440 h1        1 MOL      0.019409
     70 H30         0.7890   -3.7380   -4.8160 hc        1 MOL      0.016845
     71 H31        -0.7930   -3.3700   -5.3630 hc        1 MOL      0.016845
     72 N7         -0.7730   -6.1590   -2.1950 n         1 MOL     -0.061700
     73 C23        -0.2290   -7.1910   -1.2950 c3        1 MOL     -0.236723
     74 C24        -0.2120   -6.8840    0.1480 c         1 MOL      0.479432
     75 O13         0.5780   -7.5130    0.8640 o         1 MOL     -0.511827
     76 H32        -1.5570   -6.4200   -2.7800 hn        1 MOL      0.177265
     77 H33         0.7840   -7.4360   -1.6290 h1        1 MOL      0.122714
     78 H34        -0.8280   -8.0870   -1.4480 h1        1 MOL      0.122714
     79 N8         -1.0140   -5.8510    0.5540 n         1 MOL     -0.159462
     80 C25        -1.0790   -5.2820    1.9510 c3        1 MOL     -0.143530
     81 C26        -1.2050   -3.6960    1.8190 c         1 MOL      0.474402
     82 O14        -1.5440   -3.2220    0.7380 o         1 MOL     -0.504496
     83 C27        -2.1750   -5.8150    2.8100 c3        1 MOL      0.377233
     84 C28        -3.6130   -5.8600    2.3020 c3        1 MOL     -0.429837
     85 O15        -1.8120   -7.1760    3.1930 oh        1 MOL     -0.582573
     86 H35        -1.6670   -5.5470   -0.1550 hn        1 MOL      0.171191
     87 H36        -0.1120   -5.4240    2.4370 h1        1 MOL      0.102049
     88 H37        -2.1820   -5.3030    3.7750 h1        1 MOL      0.009363
     89 H38        -1.4250   -7.0770    4.0620 ho        1 MOL      0.361443
     90 H39        -4.3340   -5.9950    3.1070 hc        1 MOL      0.101374
     91 H40        -3.7130   -4.9240    1.7490 hc        1 MOL      0.101374
     92 H41        -3.7220   -6.5740    1.4910 hc        1 MOL      0.101374
     93 N9         -0.8060   -2.9290    2.8360 n         1 MOL     -0.364013
     94 C29        -0.6820   -1.5210    2.8880 c3        1 MOL      0.027363
     95 C30         0.6720   -1.0380    2.2750 c         1 MOL      0.724151
     96 O16         0.6640   -0.0350    1.6110 o         1 MOL     -0.516650
     97 C31        -0.8510   -0.9770    4.3210 c3        1 MOL      0.111666
     98 C32        -2.0710   -1.4070    5.2010 c3        1 MOL      0.164970
     99 C33        -0.6310    0.5370    4.3120 c3        1 MOL     -0.222625
    100 C34        -1.9210   -1.1840    6.6760 c3        1 MOL     -0.086832
    101 H42        -0.5060   -3.3330    3.7070 hn        1 MOL      0.224676
    102 H43        -1.5730   -1.1410    2.3780 h1        1 MOL      0.041780
    103 H44        -0.0070   -1.3410    4.9070 hc        1 MOL     -0.048497
    104 H45        -2.3280   -2.4340    4.9550 hc        1 MOL     -0.078806
    105 H46        -2.8600   -0.7860    4.7770 hc        1 MOL     -0.078806
    106 H47        -1.2780    1.0300    3.5790 hc        1 MOL      0.061609
    107 H48        -0.8630    0.9400    5.2940 hc        1 MOL      0.061609
    108 H49         0.4170    0.7620    4.1020 hc        1 MOL      0.061609
    109 H50        -2.8630   -1.3870    7.1810 hc        1 MOL      0.020366
    110 H51        -1.2330   -1.9080    7.1170 hc        1 MOL      0.020366
    111 H52        -1.6040   -0.1490    6.8590 hc        1 MOL      0.020366
    112 N10         1.8030   -1.7900    2.3170 n         1 MOL     -0.671477
    113 C35         2.8890   -1.6960    1.3190 c3        1 MOL      0.035589
    114 C36         4.2390   -2.1090    1.8200 c         1 MOL      0.734579
    115 O17         4.3620   -3.0340    2.6220 o         1 MOL     -0.535306
    116 C37         2.3920   -2.6170    0.1120 c3        1 MOL      0.104693
    117 C38         3.5200   -2.7160   -0.9710 c3        1 MOL     -0.426771
    118 O18         1.9610   -3.8600    0.4930 oh        1 MOL     -0.482707
    119 H53         1.8940   -2.5740    2.9480 hn        1 MOL      0.325208
    120 H54         3.0110   -0.6800    0.9530 h1        1 MOL      0.061619
    121 H55         1.6560   -2.0690   -0.4720 h1        1 MOL      0.109438
    122 H56         1.7910   -4.2770   -0.3580 ho        1 MOL      0.352798
    123 H57         4.2460   -3.5040   -0.7430 hc        1 MOL      0.105032
    124 H58         3.1120   -2.9500   -1.9540 hc        1 MOL      0.105032
    125 H59         4.1550   -1.8320   -1.0460 hc        1 MOL      0.105032
    126 N11         5.3320   -1.4240    1.3400 n         1 MOL     -0.666787
    127 C39         6.6870   -1.8680    1.7230 c3        1 MOL     -0.046693
    128 C40         7.6120   -0.6140    1.9250 c         1 MOL      0.657171
    129 O19         8.2430   -0.4460    2.9310 o         1 MOL     -0.551611
    130 C41         7.1840   -2.9010    0.7000 c3        1 MOL      0.327120
    131 C42         8.5960   -3.2960    0.8950 c3        1 MOL     -0.482733
    132 O20         7.0880   -2.3700   -0.5750 oh        1 MOL     -0.613658
    133 H60         5.1650   -0.6860    0.6660 hn        1 MOL      0.348436
    134 H61         6.5460   -2.3600    2.6890 h1        1 MOL      0.107081
    135 H62         6.5310   -3.7620    0.7760 h1        1 MOL      0.065885
    136 H63         7.0690   -3.1020   -1.1850 ho        1 MOL      0.407812
    137 H64         8.6750   -3.8490    1.8270 hc        1 MOL      0.122781
    138 H65         8.7490   -4.0190    0.0900 hc        1 MOL      0.122781
    139 H66         9.2920   -2.4460    0.8940 hc        1 MOL      0.122781
    140 N12         7.5960    0.2590    0.9130 n         1 MOL     -0.402824
    141 C43         8.3850    1.4650    0.8560 c3        1 MOL      0.000859
    142 C44         7.7700    2.5480   -0.0820 c         1 MOL      0.496638
    143 O21         7.2110    2.1670   -1.1880 o         1 MOL     -0.516104
    144 C45         9.8770    1.1300    0.4070 c3        1 MOL     -0.281408
    145 C46        10.0170    0.5140   -0.9810 c3        1 MOL      0.075096
    146 C47        11.4320    0.1030   -1.2700 c3        1 MOL      0.035415
    147 C48        11.6850   -0.0850   -2.7740 c3        1 MOL      0.053685
    148 N13        13.0180   -0.6760   -2.9670 n4        1 MOL     -0.403287
    149 H67         6.9190    0.0730    0.1790 hn        1 MOL      0.250495
    150 H68         8.3970    1.8820    1.8610 h1        1 MOL      0.085739
    151 H69        10.3270    0.5800    1.2310 hc        1 MOL      0.103341
    152 H70        10.4050    2.0840    0.3720 hc        1 MOL      0.103341
    153 H71         9.6220    1.1290   -1.7980 hc        1 MOL      0.011319
    154 H72         9.3820   -0.3700   -0.9850 hc        1 MOL      0.011319
    155 H73        11.6660   -0.8150   -0.7340 hc        1 MOL      0.010283
    156 H74        12.1550    0.8340   -0.8950 hc        1 MOL      0.010283
    157 H75        11.6880    0.8950   -3.2600 hx        1 MOL      0.086301
    158 H76        10.8810   -0.6950   -3.1770 hx        1 MOL      0.086301
    159 H77        13.2750   -0.7490   -3.9310 hn        1 MOL      0.314010
    160 H78        13.7820   -0.1320   -2.6050 hn        1 MOL      0.314010
    161 H79        12.9560   -1.6090   -2.5890 hn        1 MOL      0.314010
    162 N14         7.7880    3.7930    0.2670 n         1 MOL     -0.430607
    163 C49         7.2080    4.9280   -0.5020 c3        1 MOL      0.269689
    164 C50         5.6990    4.7870   -0.7790 c         1 MOL      0.393096
    165 O22         5.3120    4.7060   -1.8970 o         1 MOL     -0.517551
    166 C51         7.6710    6.2320    0.1930 c3        1 MOL      0.084523
    167 C52         9.1170    6.6370   -0.1980 c3        1 MOL     -0.163504
    168 C53         9.4150    8.1740   -0.1450 c         1 MOL      0.668212
    169 O23        10.0810    8.7490   -1.0690 o         1 MOL     -0.642633
    170 O24         8.8220    8.7750    0.8090 o         1 MOL     -0.642633
    171 H80         8.3240    3.9820    1.1070 hn        1 MOL      0.276547
    172 H81         7.7170    4.9690   -1.4650 h1        1 MOL      0.020699
    173 H82         7.6660    6.0390    1.2650 hc        1 MOL      0.000499
    174 H83         6.9600    7.0200   -0.0050 hc        1 MOL      0.000499
    175 H84         9.4010    6.1080   -1.1050 hc        1 MOL     -0.015898
    176 H85         9.7530    6.0860    0.4970 hc        1 MOL     -0.015898
    177 N15         4.7910    4.6360    0.1810 n         1 MOL     -0.403896
    178 C54         5.0730    4.7930    1.6490 c3        1 MOL      0.013634
    179 H86         5.9210    5.4640    1.7860 h1        1 MOL      0.029261
    180 H87         4.1970    5.2090    2.1460 h1        1 MOL      0.029261
    181 H88         5.3090    3.8190    2.0800 h1        1 MOL      0.029261
    182 H89         3.8330    4.4930   -0.0840 hn        1 MOL      0.327212
    183 Ca1        -5.8140    5.3710    0.5060 Ca        1 MOL      1.710437
    184 O25        -5.3610    3.0080    1.8420 oh        1 MOL     -0.910453
    185 H90        -6.0840    2.5170    2.2250 ho        1 MOL      0.442958
    186 H91        -4.5830    2.6820    2.3100 ho        1 MOL      0.442958
    187 O26        -3.3630    5.5300    1.5820 oh        1 MOL     -0.910453
    188 H92        -2.8980    5.1920    0.8140 ho        1 MOL      0.442958
    189 H93        -3.2070    4.8700    2.2580 ho        1 MOL      0.442958
@<TRIPOS>BOND
     1    1    2 1   
     2    1    4 1   
     3    1    5 1   
     4    1    6 1   
     5    2    3 2   
     6    2    7 1   
     7    7    8 1   
     8    7   15 1   
     9    8    9 1   
    10    8   11 1   
    11    8   16 1   
    12    9   10 2   
    13    9   19 1   
    14   11   12 1   
    15   11   17 1   
    16   11   18 1   
    17   12   13 1   
    18   12   14 1   
    19   19   20 1   
    20   19   28 1   
    21   20   21 1   
    22   20   23 1   
    23   20   29 1   
    24   21   22 2   
    25   21   41 1   
    26   23   24 1   
    27   23   30 1   
    28   23   31 1   
    29   24   25 1   
    30   24   32 1   
    31   24   33 1   
    32   25   26 1   
    33   25   34 1   
    34   25   35 1   
    35   26   27 1   
    36   26   36 1   
    37   26   37 1   
    38   27   38 1   
    39   27   39 1   
    40   27   40 1   
    41   41   42 1   
    42   41   49 1   
    43   42   43 1   
    44   42   45 1   
    45   42   50 1   
    46   43   44 2   
    47   43   53 1   
    48   45   46 1   
    49   45   51 1   
    50   45   52 1   
    51   46   47 1   
    52   46   48 1   
    53   53   54 1   
    54   53   57 1   
    55   54   55 1   
    56   54   58 1   
    57   54   59 1   
    58   55   56 2   
    59   55   60 1   
    60   60   61 1   
    61   60   68 1   
    62   61   62 1   
    63   61   64 1   
    64   61   69 1   
    65   62   63 2   
    66   62   72 1   
    67   64   65 1   
    68   64   70 1   
    69   64   71 1   
    70   65   66 1   
    71   65   67 1   
    72   72   73 1   
    73   72   76 1   
    74   73   74 1   
    75   73   77 1   
    76   73   78 1   
    77   74   75 2   
    78   74   79 1   
    79   79   80 1   
    80   79   86 1   
    81   80   81 1   
    82   80   83 1   
    83   80   87 1   
    84   81   82 2   
    85   81   93 1   
    86   83   84 1   
    87   83   85 1   
    88   83   88 1   
    89   84   90 1   
    90   84   91 1   
    91   84   92 1   
    92   85   89 1   
    93   93   94 1   
    94   93  101 1   
    95   94   95 1   
    96   94   97 1   
    97   94  102 1   
    98   95   96 2   
    99   95  112 1   
   100   97   98 1   
   101   97   99 1   
   102   97  103 1   
   103   98  100 1   
   104   98  104 1   
   105   98  105 1   
   106   99  106 1   
   107   99  107 1   
   108   99  108 1   
   109  100  109 1   
   110  100  110 1   
   111  100  111 1   
   112  112  113 1   
   113  112  119 1   
   114  113  114 1   
   115  113  116 1   
   116  113  120 1   
   117  114  115 2   
   118  114  126 1   
   119  116  117 1   
   120  116  118 1   
   121  116  121 1   
   122  117  123 1   
   123  117  124 1   
   124  117  125 1   
   125  118  122 1   
   126  126  127 1   
   127  126  133 1   
   128  127  128 1   
   129  127  130 1   
   130  127  134 1   
   131  128  129 2   
   132  128  140 1   
   133  130  131 1   
   134  130  132 1   
   135  130  135 1   
   136  131  137 1   
   137  131  138 1   
   138  131  139 1   
   139  132  136 1   
   140  140  141 1   
   141  140  149 1   
   142  141  142 1   
   143  141  144 1   
   144  141  150 1   
   145  142  143 2   
   146  142  162 1   
   147  144  145 1   
   148  144  151 1   
   149  144  152 1   
   150  145  146 1   
   151  145  153 1   
   152  145  154 1   
   153  146  147 1   
   154  146  155 1   
   155  146  156 1   
   156  147  148 1   
   157  147  157 1   
   158  147  158 1   
   159  148  159 1   
   160  148  160 1   
   161  148  161 1   
   162  162  163 1   
   163  162  171 1   
   164  163  164 1   
   165  163  166 1   
   166  163  172 1   
   167  164  165 2   
   168  164  177 1   
   169  166  167 1   
   170  166  173 1   
   171  166  174 1   
   172  167  168 1   
   173  167  175 1   
   174  167  176 1   
   175  168  169 1   
   176  168  170 1   
   177  177  178 1   
   178  177  182 1   
   179  178  179 1   
   180  178  180 1   
   181  178  181 1   
   182  184  185 1   
   183  184  186 1   
   184  187  188 1   
   185  187  189 1   
@<TRIPOS>SUBSTRUCTURE
     1 MOL         1 TEMP              0 ****  ****    0 ROOT
