@<TRIPOS>MOLECULE
MOL
  204   195     1     0     0
SMALL
resp


@<TRIPOS>ATOM
      1 C1         -3.6220   -2.8780   -0.5860 c3        1 MOL     -0.254760
      2 C2         -2.2730   -2.2330   -0.4780 c         1 MOL      0.344654
      3 O1         -2.2750   -1.0170   -0.2300 o         1 MOL     -0.538591
      4 H1         -4.3190   -2.3740    0.0840 hc        1 MOL      0.084745
      5 H2         -3.9820   -2.7970   -1.6110 hc        1 MOL      0.084745
      6 H3         -3.5460   -3.9290   -0.3090 hc        1 MOL      0.084745
      7 N1         -1.0780   -2.8090   -0.7100 n         1 MOL     -0.013550
      8 C3         -0.8050   -4.2120   -1.1060 c3        1 MOL     -0.311884
      9 C4         -0.3540   -5.1020    0.0090 c         1 MOL      0.485850
     10 O2         -0.2650   -6.3040   -0.2540 o         1 MOL     -0.507172
     11 C5          0.1840   -4.1900   -2.1790 c3        1 MOL     -0.067674
     12 C6         -0.1390   -3.3220   -3.3280 c         1 MOL      0.658756
     13 O3          0.4380   -2.2160   -3.3750 o         1 MOL     -0.650672
     14 O4         -0.9880   -3.7340   -4.2650 o         1 MOL     -0.650672
     15 H4         -0.2620   -2.2180   -0.6220 hn        1 MOL      0.194862
     16 H5         -1.7000   -4.7280   -1.4610 h1        1 MOL      0.127751
     17 H6          0.3730   -5.2180   -2.4860 hc        1 MOL      0.043609
     18 H7          1.1670   -3.8330   -1.8620 hc        1 MOL      0.043609
     19 N2         -0.1240   -4.5860    1.2030 n         1 MOL     -0.201978
     20 C7          0.5710   -5.3520    2.2430 c3        1 MOL     -0.426163
     21 C8          1.9730   -5.8100    1.8850 c         1 MOL      0.441376
     22 O5          2.5360   -6.7040    2.5260 o         1 MOL     -0.537563
     23 C9          0.3280   -4.6270    3.5510 c3        1 MOL      0.368108
     24 C10         1.0290   -3.2170    3.4930 c3        1 MOL      0.111037
     25 C11        -1.1550   -4.6560    3.9540 c3        1 MOL     -0.262979
     26 C12         1.2830   -2.7110    4.9030 c3        1 MOL     -0.322444
     27 H8         -0.5180   -3.6790    1.4510 hn        1 MOL      0.124731
     28 H9          0.0620   -6.3100    2.2670 h1        1 MOL      0.150855
     29 H10         0.8000   -5.2210    4.3290 hc        1 MOL     -0.012486
     30 H11         0.4110   -2.4950    2.9570 hc        1 MOL      0.038802
     31 H12         2.0340   -3.1450    3.0740 hc        1 MOL      0.038802
     32 H13        -1.2090   -4.2030    4.9390 hc        1 MOL      0.044198
     33 H14        -1.7680   -4.0110    3.3110 hc        1 MOL      0.044198
     34 H15        -1.4780   -5.6940    3.9490 hc        1 MOL      0.044198
     35 H16         1.9270   -3.4860    5.3170 hc        1 MOL      0.057481
     36 H17         1.7970   -1.7540    4.8350 hc        1 MOL      0.057481
     37 H18         0.4040   -2.6470    5.5460 hc        1 MOL      0.057481
     38 N3          2.6740   -5.1000    0.9880 n         1 MOL     -0.054623
     39 C13         4.0460   -5.5140    0.6280 c3        1 MOL     -0.047664
     40 C14         4.3820   -5.0190   -0.7930 c         1 MOL      0.347065
     41 O6          3.6420   -4.2630   -1.3710 o         1 MOL     -0.419949
     42 C15         5.0710   -4.9300    1.5740 c3        1 MOL     -0.257509
     43 C16         6.3850   -5.7110    1.5750 c         1 MOL      0.770237
     44 O7          7.4800   -5.1790    1.4260 o         1 MOL     -0.672636
     45 O8          6.3030   -6.9610    1.6150 o         1 MOL     -0.672636
     46 H19         2.2210   -4.3420    0.4940 hn        1 MOL      0.144146
     47 H20         4.1070   -6.6020    0.6810 h1        1 MOL      0.079677
     48 H21         4.7940   -4.8960    2.6230 hc        1 MOL      0.057093
     49 H22         5.1770   -3.8950    1.2500 hc        1 MOL      0.057093
     50 N4          5.5250   -5.4630   -1.3150 n         1 MOL     -0.281383
     51 C17         6.2570   -4.8300   -2.4160 c3        1 MOL     -0.317239
     52 C18         6.8600   -3.4390   -2.0520 c         1 MOL      0.558357
     53 O9          7.2090   -2.6990   -2.9640 o         1 MOL     -0.584171
     54 H23         5.9760   -6.2280   -0.8410 hn        1 MOL      0.256684
     55 H24         5.5110   -4.6790   -3.1880 h1        1 MOL      0.148659
     56 H25         7.1200   -5.4120   -2.7630 h1        1 MOL      0.148659
     57 N5          7.0900   -3.1020   -0.8650 n         1 MOL     -0.335839
     58 C19         7.6540   -1.8010   -0.3970 c3        1 MOL      0.032556
     59 C20         6.8100   -1.1960    0.7220 c         1 MOL      0.492259
     60 O10         6.3700   -1.8840    1.6540 o         1 MOL     -0.545959
     61 C21         9.0720   -1.9510    0.2210 c3        1 MOL     -0.093233
     62 C22        10.0610   -2.8600   -0.5230 c         1 MOL      0.609744
     63 O11        10.1610   -2.7890   -1.8150 o         1 MOL     -0.590597
     64 O12        10.8910   -3.5140    0.1750 o         1 MOL     -0.590597
     65 H26         6.9280   -3.7630   -0.1100 hn        1 MOL      0.382725
     66 H27         7.8170   -1.1030   -1.2130 h1        1 MOL      0.085569
     67 H28         8.8740   -2.3720    1.2140 hc        1 MOL      0.025169
     68 H29         9.5060   -0.9620    0.4040 hc        1 MOL      0.025169
     69 N6          6.6560    0.1150    0.8090 n         1 MOL     -0.443382
     70 C23         6.6240    1.0820   -0.3020 c3        1 MOL      0.062831
     71 C24         6.8250    2.5420    0.2200 c         1 MOL      0.595940
     72 O13         7.0590    2.7160    1.4400 o         1 MOL     -0.586193
     73 H30         6.3300    0.4270    1.7110 hn        1 MOL      0.286381
     74 H31         5.7030    1.1060   -0.8710 h1        1 MOL      0.049632
     75 H32         7.3840    0.8630   -1.0590 h1        1 MOL      0.049632
     76 N7          6.9620    3.5820   -0.5680 n         1 MOL     -0.427251
     77 C25         6.7650    3.7290   -2.0310 c3        1 MOL      0.240444
     78 C26         5.3600    3.3120   -2.5060 c         1 MOL      0.321979
     79 O14         5.1860    2.7880   -3.6410 o         1 MOL     -0.500929
     80 C27         7.9040    3.1270   -2.8350 c3        1 MOL     -0.290141
     81 C28         9.3710    3.4790   -2.4210 c3        1 MOL     -0.037261
     82 C29         9.8920    2.6340   -1.2720 c         1 MOL      0.523108
     83 N8         10.3700    3.1230   -0.1510 n         1 MOL     -0.723777
     84 O15         9.8300    1.4410   -1.3830 o         1 MOL     -0.454443
     85 H33         7.2330    4.4180   -0.0700 hn        1 MOL      0.234525
     86 H34         6.7270    4.7960   -2.2750 h1        1 MOL      0.020652
     87 H35         7.7810    3.5340   -3.8410 hc        1 MOL      0.119763
     88 H36         7.8130    2.0430   -2.9200 hc        1 MOL      0.119763
     89 H37         9.3620    4.5630   -2.2680 hc        1 MOL      0.018133
     90 H38        10.0730    3.4170   -3.2510 hc        1 MOL      0.018133
     91 H39        10.6500    4.0850   -0.0620 hn        1 MOL      0.346119
     92 H40        10.5720    2.3900    0.5140 hn        1 MOL      0.346119
     93 N9          4.3590    3.5290   -1.6370 n         1 MOL     -0.167639
     94 C30         3.0850    2.8690   -1.4940 c3        1 MOL      0.013230
     95 C31         2.7910    2.6620   -0.0090 c         1 MOL      0.194329
     96 O16         3.3990    3.2170    0.9070 o         1 MOL     -0.469790
     97 C32         1.8570    3.6590   -2.1040 c3        1 MOL      0.086758
     98 C33         1.9940    3.7560   -3.5950 c3        1 MOL     -0.348231
     99 C34         1.8100    5.0790   -1.5510 c3        1 MOL     -0.348231
    100 H41         4.6400    4.0310   -0.8150 hn        1 MOL      0.127966
    101 H42         3.1680    1.8770   -1.9210 h1        1 MOL      0.113383
    102 H43         0.9880    3.0300   -1.9480 hc        1 MOL      0.067328
    103 H44         2.9070    4.2710   -3.8760 hc        1 MOL      0.104164
    104 H45         2.0230    2.7250   -3.9500 hc        1 MOL      0.104164
    105 H46         1.1250    4.1860   -4.0900 hc        1 MOL      0.104164
    106 H47         0.8690    5.6220   -1.6880 hc        1 MOL      0.104164
    107 H48         1.7840    5.0000   -0.4660 hc        1 MOL      0.104164
    108 H49         2.6830    5.5910   -1.9380 hc        1 MOL      0.104164
    109 N10         1.7630    1.8840    0.2310 n         1 MOL     -0.054839
    110 C35         1.5410    1.2400    1.5490 c3        1 MOL     -0.062492
    111 C36         0.5350    2.0370    2.4740 c         1 MOL      0.524425
    112 O17         0.3260    1.8890    3.7090 o         1 MOL     -0.556822
    113 C37         0.9260   -0.1610    1.4380 c3        1 MOL     -0.082956
    114 C38         2.0580   -1.1350    0.9630 c         1 MOL      0.371838
    115 N11         3.3090   -1.0390    1.3880 n         1 MOL     -0.589343
    116 O18         1.8330   -2.0530    0.1610 o         1 MOL     -0.415306
    117 H50         1.3270    1.4920   -0.6000 hn        1 MOL      0.238990
    118 H51         2.4790    1.2530    2.1130 h1        1 MOL      0.089774
    119 H52         0.0370   -0.1800    0.8040 hc        1 MOL      0.045258
    120 H53         0.5920   -0.4630    2.4310 hc        1 MOL      0.045258
    121 H54         3.5420   -0.3560    2.1020 hn        1 MOL      0.320323
    122 H55         3.9920   -1.6980    1.0590 hn        1 MOL      0.320323
    123 N12        -0.1720    2.9810    1.7960 n         1 MOL     -0.237550
    124 C39        -1.1920    3.9070    2.3140 c3        1 MOL      0.041893
    125 C40        -2.0130    4.4550    1.1750 c         1 MOL      0.717889
    126 O19        -1.5670    4.6800    0.0010 o         1 MOL     -0.519464
    127 C41        -0.6100    5.0940    3.0970 c3        1 MOL      0.030912
    128 C42         0.0580    6.1920    2.2750 ca        1 MOL     -0.004668
    129 C43        -0.6330    7.3900    1.9920 ca        1 MOL     -0.051292
    130 C44         1.4020    6.1310    1.9770 ca        1 MOL     -0.051292
    131 C45         0.0450    8.5120    1.5090 ca        1 MOL     -0.288815
    132 C46         2.0830    7.2610    1.3810 ca        1 MOL     -0.288815
    133 C47         1.3860    8.4660    1.1920 ca        1 MOL      0.277161
    134 O20         1.9300    9.5480    0.5560 oh        1 MOL     -0.451387
    135 H56         0.0110    3.0780    0.8070 hn        1 MOL      0.035154
    136 H57        -1.8280    3.2580    2.9190 h1        1 MOL      0.053461
    137 H58         0.0410    4.6400    3.8490 hc        1 MOL     -0.010837
    138 H59        -1.4650    5.4850    3.6640 hc        1 MOL     -0.010837
    139 H60        -1.6450    7.5440    2.3320 ha        1 MOL      0.102304
    140 H61         1.9340    5.2130    2.2010 ha        1 MOL      0.102304
    141 H62        -0.4170    9.4810    1.3700 ha        1 MOL      0.157649
    142 H63         3.1080    7.2920    1.0510 ha        1 MOL      0.157649
    143 H64         2.8650    9.4290    0.3700 ho        1 MOL      0.329595
    144 N13        -3.3000    4.6560    1.4350 n         1 MOL     -0.704598
    145 C48        -4.2860    4.9590    0.3590 c3        1 MOL      0.079526
    146 C49        -5.5670    4.0170    0.4210 c         1 MOL      0.597594
    147 O21        -6.5580    4.2610    1.1220 o         1 MOL     -0.528648
    148 C50        -4.6310    6.5010    0.4740 c3        1 MOL      0.151147
    149 C51        -5.3480    7.0250   -0.8160 c3        1 MOL     -0.279792
    150 C52        -5.4320    8.5680   -0.9050 c         1 MOL      0.717560
    151 O22        -4.4640    9.2520   -0.4800 o         1 MOL     -0.703072
    152 O23        -6.4120    9.0810   -1.5050 o         1 MOL     -0.703072
    153 H65        -3.6390    4.3570    2.3380 hn        1 MOL      0.334665
    154 H66        -3.8730    4.8100   -0.6400 h1        1 MOL      0.037997
    155 H67        -3.6780    7.0190    0.6020 hc        1 MOL     -0.012403
    156 H68        -5.2720    6.7360    1.3270 hc        1 MOL     -0.012403
    157 H69        -6.3040    6.5160   -0.8800 hc        1 MOL      0.054611
    158 H70        -4.7440    6.7720   -1.6870 hc        1 MOL      0.054611
    159 N14        -5.4780    2.9440   -0.3650 n         1 MOL     -0.569945
    160 C53        -6.3640    1.8050   -0.3020 c3        1 MOL      0.237809
    161 C54        -6.2620    1.0440    1.0330 c         1 MOL      0.471462
    162 O24        -7.2910    0.7090    1.5870 o         1 MOL     -0.583981
    163 C55        -6.1610    1.0010   -1.5400 c3        1 MOL     -0.660986
    164 C56        -7.0080   -0.2730   -1.6960 c3        1 MOL     -0.378564
    165 C57        -8.4810    0.0600   -1.6860 c         1 MOL      0.859494
    166 O25        -8.8430    1.1640   -2.1950 o         1 MOL     -0.720074
    167 O26        -9.3290   -0.7780   -1.3110 o         1 MOL     -0.720074
    168 H71        -4.6100    2.6790   -0.7970 hn        1 MOL      0.311648
    169 H72        -7.4050    2.1260   -0.3010 h1        1 MOL      0.125040
    170 H73        -5.1250    0.6810   -1.6310 hc        1 MOL      0.231665
    171 H74        -6.3630    1.5510   -2.4640 hc        1 MOL      0.231665
    172 H75        -6.8460   -0.9530   -0.8590 hc        1 MOL      0.155396
    173 H76        -6.8350   -0.6980   -2.6840 hc        1 MOL      0.155396
    174 N15        -5.0470    0.7290    1.5220 n         1 MOL     -0.077760
    175 C58        -4.7780    0.3930    2.9070 c3        1 MOL     -0.453607
    176 H77        -5.5660   -0.2600    3.2820 h1        1 MOL      0.155308
    177 H78        -3.8180   -0.1190    2.9770 h1        1 MOL      0.155308
    178 H79        -4.7480    1.3060    3.5030 h1        1 MOL      0.155308
    179 H80        -4.3100    1.0620    0.9280 hn        1 MOL      0.122264
    180 Ca1       -10.1980   -3.1020   -0.6590 Ca        1 MOL      1.684254
    181 O27        -8.4720   -2.4360    1.2140 oh        1 MOL     -0.750542
    182 H81        -7.9580   -3.0980    1.6690 ho        1 MOL      0.327123
    183 H82        -7.8900   -1.6660    1.1780 ho        1 MOL      0.327123
    184 O28       -11.8150   -1.2060    0.3820 oh        1 MOL     -0.750542
    185 H83       -12.5160   -1.4580    0.9860 ho        1 MOL      0.327123
    186 H84       -11.7450   -0.2550    0.4880 ho        1 MOL      0.327123
    187 O29       -12.8450   -4.1230   -0.0600 oh        1 MOL     -0.750542
    188 H85       -13.2440   -4.2110    0.8070 ho        1 MOL      0.327123
    189 H86       -13.5270   -3.7480   -0.6130 ho        1 MOL      0.327123
    190 O30       -12.3710   -2.7810   -2.8000 oh        1 MOL     -0.750542
    191 H87       -13.3030   -2.8390   -2.5850 ho        1 MOL      0.327123
    192 H88       -12.1900   -1.8420   -2.8160 ho        1 MOL      0.327123
    193 O31        -9.1310   -3.3250   -3.3660 oh        1 MOL     -0.750542
    194 H89        -9.6430   -3.1450   -4.1540 ho        1 MOL      0.327123
    195 H90        -8.2530   -3.5310   -3.6920 ho        1 MOL      0.327123
    196 O32       -10.2030   -4.8380    1.5660 oh        1 MOL     -0.750542
    197 H91       -10.5150   -4.7860    2.4680 ho        1 MOL      0.327123
    198 H92        -9.4770   -5.4640    1.6020 ho        1 MOL      0.327123
    199 O33       -10.9120   -5.5390   -1.6880 oh        1 MOL     -0.750542
    200 H93       -11.5280   -6.2170   -1.3990 ho        1 MOL      0.327123
    201 H94       -10.9420   -5.5930   -2.6490 ho        1 MOL      0.327123
    202 O34        -8.0050   -4.6840   -0.5380 oh        1 MOL     -0.750542
    203 H95        -7.6210   -5.1640   -1.2660 ho        1 MOL      0.327123
    204 H96        -7.5070   -4.9630    0.2350 ho        1 MOL      0.327123
@<TRIPOS>BOND
     1    1    2 1   
     2    1    4 1   
     3    1    5 1   
     4    1    6 1   
     5    2    3 2   
     6    2    7 1   
     7    7    8 1   
     8    7   15 1   
     9    8    9 1   
    10    8   11 1   
    11    8   16 1   
    12    9   10 2   
    13    9   19 1   
    14   11   12 1   
    15   11   17 1   
    16   11   18 1   
    17   12   13 1   
    18   12   14 1   
    19   19   20 1   
    20   19   27 1   
    21   20   21 1   
    22   20   23 1   
    23   20   28 1   
    24   21   22 2   
    25   21   38 1   
    26   23   24 1   
    27   23   25 1   
    28   23   29 1   
    29   24   26 1   
    30   24   30 1   
    31   24   31 1   
    32   25   32 1   
    33   25   33 1   
    34   25   34 1   
    35   26   35 1   
    36   26   36 1   
    37   26   37 1   
    38   38   39 1   
    39   38   46 1   
    40   39   40 1   
    41   39   42 1   
    42   39   47 1   
    43   40   41 2   
    44   40   50 1   
    45   42   43 1   
    46   42   48 1   
    47   42   49 1   
    48   43   44 1   
    49   43   45 1   
    50   50   51 1   
    51   50   54 1   
    52   51   52 1   
    53   51   55 1   
    54   51   56 1   
    55   52   53 2   
    56   52   57 1   
    57   57   58 1   
    58   57   65 1   
    59   58   59 1   
    60   58   61 1   
    61   58   66 1   
    62   59   60 2   
    63   59   69 1   
    64   61   62 1   
    65   61   67 1   
    66   61   68 1   
    67   62   63 1   
    68   62   64 1   
    69   69   70 1   
    70   69   73 1   
    71   70   71 1   
    72   70   74 1   
    73   70   75 1   
    74   71   72 2   
    75   71   76 1   
    76   76   77 1   
    77   76   85 1   
    78   77   78 1   
    79   77   80 1   
    80   77   86 1   
    81   78   79 2   
    82   78   93 1   
    83   80   81 1   
    84   80   87 1   
    85   80   88 1   
    86   81   82 1   
    87   81   89 1   
    88   81   90 1   
    89   82   83 1   
    90   82   84 2   
    91   83   91 1   
    92   83   92 1   
    93   93   94 1   
    94   93  100 1   
    95   94   95 1   
    96   94   97 1   
    97   94  101 1   
    98   95   96 2   
    99   95  109 1   
   100   97   98 1   
   101   97   99 1   
   102   97  102 1   
   103   98  103 1   
   104   98  104 1   
   105   98  105 1   
   106   99  106 1   
   107   99  107 1   
   108   99  108 1   
   109  109  110 1   
   110  109  117 1   
   111  110  111 1   
   112  110  113 1   
   113  110  118 1   
   114  111  112 2   
   115  111  123 1   
   116  113  114 1   
   117  113  119 1   
   118  113  120 1   
   119  114  115 1   
   120  114  116 2   
   121  115  121 1   
   122  115  122 1   
   123  123  124 1   
   124  123  135 1   
   125  124  125 1   
   126  124  127 1   
   127  124  136 1   
   128  125  126 2   
   129  125  144 1   
   130  127  128 1   
   131  127  137 1   
   132  127  138 1   
   133  128  129 ar  
   134  128  130 ar  
   135  129  131 ar  
   136  129  139 1   
   137  130  132 ar  
   138  130  140 1   
   139  131  133 ar  
   140  131  141 1   
   141  132  133 ar  
   142  132  142 1   
   143  133  134 1   
   144  134  143 1   
   145  144  145 1   
   146  144  153 1   
   147  145  146 1   
   148  145  148 1   
   149  145  154 1   
   150  146  147 2   
   151  146  159 1   
   152  148  149 1   
   153  148  155 1   
   154  148  156 1   
   155  149  150 1   
   156  149  157 1   
   157  149  158 1   
   158  150  151 1   
   159  150  152 1   
   160  159  160 1   
   161  159  168 1   
   162  160  161 1   
   163  160  163 1   
   164  160  169 1   
   165  161  162 2   
   166  161  174 1   
   167  163  164 1   
   168  163  170 1   
   169  163  171 1   
   170  164  165 1   
   171  164  172 1   
   172  164  173 1   
   173  165  166 1   
   174  165  167 1   
   175  174  175 1   
   176  174  179 1   
   177  175  176 1   
   178  175  177 1   
   179  175  178 1   
   180  181  182 1   
   181  181  183 1   
   182  184  185 1   
   183  184  186 1   
   184  187  188 1   
   185  187  189 1   
   186  190  191 1   
   187  190  192 1   
   188  193  194 1   
   189  193  195 1   
   190  196  197 1   
   191  196  198 1   
   192  199  200 1   
   193  199  201 1   
   194  202  203 1   
   195  202  204 1   
@<TRIPOS>SUBSTRUCTURE
     1 MOL         1 TEMP              0 ****  ****    0 ROOT
