@<TRIPOS>MOLECULE
MOL
  191   184     1     0     0
SMALL
resp


@<TRIPOS>ATOM
      1 C1         -4.8010    2.3670   -2.8940 c3        1 MOL     -0.322232
      2 C2         -6.0690    2.3620   -1.9810 c         1 MOL      0.619500
      3 O1         -5.9560    1.9200   -0.8090 o         1 MOL     -0.504367
      4 H1         -3.9190    2.1450   -2.2930 hc        1 MOL      0.085232
      5 H2         -4.9090    1.6110   -3.6710 hc        1 MOL      0.085232
      6 H3         -4.6880    3.3490   -3.3550 hc        1 MOL      0.085232
      7 N1         -7.2170    3.0390   -2.3810 n         1 MOL     -0.447669
      8 C3         -8.5090    3.0320   -1.7170 c3        1 MOL     -0.065430
      9 C4         -9.0720    1.5860   -1.3870 c         1 MOL      0.574166
     10 O2         -9.9660    1.4280   -0.5400 o         1 MOL     -0.531940
     11 C5         -8.5450    3.9510   -0.5150 c3        1 MOL     -0.075939
     12 C6         -8.0430    5.3380   -0.6610 c         1 MOL      0.669924
     13 O3         -6.8230    5.6270   -0.6510 o         1 MOL     -0.667373
     14 O4         -8.9550    6.2560   -0.6200 o         1 MOL     -0.667373
     15 H4         -7.1960    3.2770   -3.3670 hn        1 MOL      0.280408
     16 H5         -9.2650    3.4320   -2.3930 h1        1 MOL      0.087998
     17 H6         -8.0200    3.4500    0.3010 hc        1 MOL      0.045158
     18 H7         -9.5580    3.9290   -0.1350 hc        1 MOL      0.045158
     19 N2         -8.5840    0.4990   -1.9820 n         1 MOL     -0.424615
     20 C7         -8.9130   -0.9100   -1.7340 c3        1 MOL      0.038531
     21 C8         -7.7990   -1.7530   -1.0980 c         1 MOL      0.527642
     22 O5         -8.0180   -2.9670   -0.9890 o         1 MOL     -0.576449
     23 C9         -9.3830   -1.5080   -3.0330 c3        1 MOL     -0.139730
     24 C10       -10.7990   -0.9370   -3.3120 c3        1 MOL     -0.025725
     25 C11       -11.4930   -1.1760   -4.6940 c3        1 MOL     -0.034751
     26 C12       -12.0250   -2.6350   -4.8170 c3        1 MOL      0.023098
     27 N3        -12.7110   -2.8680   -6.1210 n4        1 MOL     -0.222529
     28 H8         -7.8190    0.6390   -2.6260 hn        1 MOL      0.197141
     29 H9         -9.6610   -1.0140   -0.9470 h1        1 MOL      0.128800
     30 H10        -9.4210   -2.5940   -2.9730 hc        1 MOL      0.056660
     31 H11        -8.7730   -1.2160   -3.8940 hc        1 MOL      0.056660
     32 H12       -10.8000    0.1530   -3.2230 hc        1 MOL      0.041547
     33 H13       -11.5760   -1.2640   -2.6190 hc        1 MOL      0.041547
     34 H14       -10.7790   -1.0410   -5.5080 hc        1 MOL      0.027517
     35 H15       -12.4240   -0.6320   -4.8500 hc        1 MOL      0.027517
     36 H16       -12.7360   -2.7580   -3.9960 hx        1 MOL      0.078744
     37 H17       -11.1300   -3.2420   -4.6800 hx        1 MOL      0.078744
     38 H18       -13.5530   -2.3300   -6.2120 hn        1 MOL      0.218870
     39 H19       -12.0790   -2.7360   -6.9060 hn        1 MOL      0.218870
     40 H20       -12.8670   -3.8540   -6.2570 hn        1 MOL      0.218870
     41 N4         -6.7900   -1.1450   -0.4790 n         1 MOL     -0.299989
     42 C13        -5.7330   -1.7820    0.2730 c3        1 MOL      0.105156
     43 C14        -5.8750   -1.6090    1.8070 c         1 MOL      0.505317
     44 O6         -6.3010   -0.5610    2.2620 o         1 MOL     -0.474296
     45 C15        -4.3870   -1.2310   -0.2840 c3        1 MOL     -0.365410
     46 C16        -3.2670   -1.8630    0.4300 c         1 MOL      0.789897
     47 O7         -2.8940   -1.3650    1.4840 o         1 MOL     -0.751766
     48 O8         -2.5090   -2.7260   -0.0460 o         1 MOL     -0.751766
     49 H21        -6.6960   -0.1440   -0.4510 hn        1 MOL      0.205382
     50 H22        -5.6980   -2.8570    0.1250 h1        1 MOL      0.024769
     51 H23        -4.2320   -0.1800   -0.0390 hc        1 MOL      0.107428
     52 H24        -4.3260   -1.4310   -1.3580 hc        1 MOL      0.107428
     53 N5         -5.4130   -2.6190    2.5620 n         1 MOL     -0.347536
     54 C17        -5.5140   -2.7300    3.9770 c3        1 MOL     -0.072177
     55 C18        -4.8890   -1.6100    4.8530 c         1 MOL      0.521452
     56 O9         -5.2100   -1.4280    6.0160 o         1 MOL     -0.556642
     57 H25        -4.9810   -3.3940    2.0680 hn        1 MOL      0.238058
     58 H26        -4.8450   -3.5690    4.1450 h1        1 MOL      0.049068
     59 H27        -6.5460   -2.8880    4.2680 h1        1 MOL      0.049068
     60 N6         -3.9770   -0.8250    4.2830 n         1 MOL     -0.107546
     61 C19        -3.2730    0.2160    4.9630 c3        1 MOL     -0.579147
     62 C20        -2.7290    1.3860    4.0470 c         1 MOL      0.672849
     63 O10        -2.5980    2.5000    4.4960 o         1 MOL     -0.544586
     64 C21        -2.2330   -0.3430    5.9160 c3        1 MOL      0.008367
     65 C22        -1.0490   -1.0170    5.1820 c         1 MOL      0.532569
     66 N7          0.0440   -1.0820    5.8410 n         1 MOL     -0.654878
     67 O11        -1.1760   -1.4260    4.0490 o         1 MOL     -0.585360
     68 H28        -3.7990   -1.1380    3.3400 hn        1 MOL      0.289643
     69 H29        -4.0630    0.6640    5.5740 h1        1 MOL      0.249470
     70 H30        -2.5770   -0.9230    6.7690 hc        1 MOL      0.081230
     71 H31        -1.8510    0.5160    6.4690 hc        1 MOL      0.081230
     72 H32         0.0920   -0.6760    6.7690 hn        1 MOL      0.316694
     73 H33         0.8790   -1.3580    5.3340 hn        1 MOL      0.316694
     74 N8         -2.6080    1.1740    2.7240 n         1 MOL     -0.321377
     75 C23        -2.1680    2.2370    1.7490 c3        1 MOL      0.023018
     76 C24        -0.6750    2.5650    1.7320 c         1 MOL      0.657782
     77 O12         0.1390    2.0890    2.5240 o         1 MOL     -0.616784
     78 H34        -2.8140    0.2440    2.3960 hn        1 MOL      0.172504
     79 H35        -2.6890    3.1510    2.0540 h1        1 MOL      0.078668
     80 H36        -2.4670    2.0660    0.7100 h1        1 MOL      0.078668
     81 N9         -0.2910    3.4060    0.8160 n         1 MOL     -0.557589
     82 C25         1.1050    3.6960    0.6050 c3        1 MOL      0.252481
     83 C26         1.8550    2.4710   -0.0350 c         1 MOL      0.335741
     84 O13         1.2090    1.4640   -0.3870 o         1 MOL     -0.539073
     85 C27         1.0900    4.8510   -0.4280 c3        1 MOL     -0.163026
     86 C28         2.4270    5.5320   -0.7940 ca        1 MOL     -0.036074
     87 C29         3.3800    5.8030    0.2070 ca        1 MOL     -0.096694
     88 C30         2.7260    5.7680   -2.1660 ca        1 MOL     -0.096694
     89 C31         4.6290    6.3600   -0.1940 ca        1 MOL     -0.266911
     90 C32         3.9470    6.3460   -2.5010 ca        1 MOL     -0.266911
     91 C33         4.8870    6.6380   -1.5340 ca        1 MOL      0.354744
     92 O14         6.0160    7.2520   -1.9110 oh        1 MOL     -0.497632
     93 H37        -0.9250    3.9710    0.2690 hn        1 MOL      0.298593
     94 H38         1.5660    4.0050    1.5430 h1        1 MOL      0.067071
     95 H39         0.3210    5.5400   -0.0650 hc        1 MOL      0.087942
     96 H40         0.6990    4.3560   -1.3240 hc        1 MOL      0.087942
     97 H41         3.1460    5.4920    1.2120 ha        1 MOL      0.117759
     98 H42         1.9480    5.6480   -2.8980 ha        1 MOL      0.117759
     99 H43         5.3030    6.6320    0.6080 ha        1 MOL      0.159434
    100 H44         4.1450    6.6930   -3.4970 ha        1 MOL      0.159434
    101 H45         5.8840    7.5770   -2.8070 ho        1 MOL      0.379174
    102 N10         3.1800    2.6200   -0.2550 n         1 MOL     -0.107562
    103 C34         4.2140    1.6990   -0.7960 c3        1 MOL     -0.006517
    104 C35         5.3480    1.4460    0.2340 c         1 MOL      0.457920
    105 O15         5.5850    0.2830    0.5300 o         1 MOL     -0.494492
    106 C36         4.8060    2.2470   -2.1800 c3        1 MOL      0.273621
    107 C37         3.6350    2.3680   -3.2360 c3        1 MOL     -0.016926
    108 C38         5.9840    1.3060   -2.6700 c3        1 MOL     -0.234704
    109 C39         4.0640    2.7700   -4.7010 c3        1 MOL     -0.311530
    110 H46         3.6040    3.3820    0.2440 hn        1 MOL      0.013701
    111 H47         3.8210    0.7310   -1.0900 h1        1 MOL      0.080498
    112 H48         5.2480    3.2240   -2.0010 hc        1 MOL     -0.118958
    113 H49         2.7730    2.9420   -2.9060 hc        1 MOL      0.048241
    114 H50         3.2010    1.3670   -3.2780 hc        1 MOL      0.048241
    115 H51         6.8230    1.1810   -1.9960 hc        1 MOL      0.065182
    116 H52         5.5870    0.3220   -2.9480 hc        1 MOL      0.065182
    117 H53         6.3900    1.7770   -3.5600 hc        1 MOL      0.065182
    118 H54         4.7720    2.0060   -5.0190 hc        1 MOL      0.077865
    119 H55         3.1660    2.7270   -5.3080 hc        1 MOL      0.077865
    120 H56         4.5490    3.7420   -4.6570 hc        1 MOL      0.077865
    121 N11         5.8060    2.4600    0.8760 n         1 MOL     -0.361306
    122 C40         6.9360    2.2400    1.8110 c3        1 MOL     -0.103498
    123 C41         8.2670    1.6750    1.2060 c         1 MOL      0.316344
    124 O16         9.0960    1.0880    1.9370 o         1 MOL     -0.444719
    125 C42         7.3220    3.5420    2.4990 c3        1 MOL      0.108031
    126 O17         6.1190    4.0380    3.1160 oh        1 MOL     -0.607748
    127 H57         5.6490    3.4130    0.5820 hn        1 MOL      0.363901
    128 H58         6.5820    1.5600    2.5940 h1        1 MOL      0.167338
    129 H59         7.7070    4.3340    1.8610 h1        1 MOL      0.069012
    130 H60         7.9420    3.2830    3.3560 h1        1 MOL      0.069012
    131 H61         6.1970    3.9740    4.0670 ho        1 MOL      0.413179
    132 N12         8.4130    1.8870   -0.0970 n         1 MOL     -0.189100
    133 C43         9.3990    1.2630   -0.9920 c3        1 MOL      0.066082
    134 C44         9.5100   -0.2960   -0.9090 c         1 MOL      0.499030
    135 O18        10.5480   -0.8630   -0.7440 o         1 MOL     -0.491162
    136 C45        10.8120    1.9220   -0.6390 c3        1 MOL     -0.386814
    137 H62         7.7680    2.4750   -0.6050 hn        1 MOL      0.186481
    138 H63         9.0840    1.6700   -1.9570 h1        1 MOL      0.075384
    139 H64        11.5520    1.8050   -1.4370 hc        1 MOL      0.117025
    140 H65        10.7330    3.0000   -0.5230 hc        1 MOL      0.117025
    141 H66        11.1730    1.4770    0.2850 hc        1 MOL      0.117025
    142 N13         8.3250   -0.8840   -0.9410 n         1 MOL     -0.477734
    143 C46         8.1050   -2.2410   -0.6420 c3        1 MOL      0.536801
    144 C47         6.9470   -2.8370   -1.3530 c         1 MOL      0.336626
    145 O19         6.1070   -2.0990   -1.8850 o         1 MOL     -0.463565
    146 C48         7.9620   -2.3320    0.8790 c3        1 MOL     -0.355667
    147 H67         7.5060   -0.2920   -0.9150 hn        1 MOL      0.100141
    148 H68         9.0080   -2.7720   -0.9460 h1        1 MOL     -0.041623
    149 H69         8.0980   -3.3830    1.1350 hc        1 MOL      0.089891
    150 H70         8.5420   -1.5950    1.4330 hc        1 MOL      0.089891
    151 H71         6.9150   -2.1580    1.1200 hc        1 MOL      0.089891
    152 N14         6.8220   -4.1880   -1.3850 n         1 MOL     -0.371227
    153 C49         5.7460   -4.8450   -2.0810 c3        1 MOL     -0.052631
    154 C50         5.7030   -4.4560   -3.5840 c         1 MOL      0.423121
    155 O20         4.6910   -4.6130   -4.2340 o         1 MOL     -0.478374
    156 C51         4.4570   -4.7900   -1.2720 c3        1 MOL      0.137477
    157 C52         3.4920   -5.9760   -1.5110 c3        1 MOL     -0.471960
    158 C53         4.0530   -7.3340   -1.0860 c         1 MOL      0.777161
    159 O21         4.4870   -8.0890   -1.9750 o         1 MOL     -0.708768
    160 O22         4.0850   -7.6160    0.0990 o         1 MOL     -0.708768
    161 H72         7.6290   -4.7220   -1.1310 hn        1 MOL      0.264455
    162 H73         6.1330   -5.8570   -2.0290 h1        1 MOL      0.124287
    163 H74         3.9270   -3.8640   -1.5130 hc        1 MOL     -0.011816
    164 H75         4.7040   -4.7060   -0.2110 hc        1 MOL     -0.011816
    165 H76         3.2510   -5.9290   -2.5740 hc        1 MOL      0.116343
    166 H77         2.5840   -5.8050   -0.9400 hc        1 MOL      0.116343
    167 N15         6.7870   -3.9710   -4.1320 n         1 MOL     -0.287349
    168 C54         6.9000   -3.4480   -5.5740 c3        1 MOL      0.054139
    169 H78         5.9010   -3.3200   -5.9920 h1        1 MOL      0.037369
    170 H79         7.4190   -2.4890   -5.5740 h1        1 MOL      0.037369
    171 H80         7.4570   -4.1630   -6.1780 h1        1 MOL      0.037369
    172 H81         7.5740   -3.7940   -3.5260 hn        1 MOL      0.181398
    173 Ca1        -0.4640   -2.5420    1.7820 Ca        1 MOL      1.808572
    174 O23        -2.4800   -3.9610    3.0660 oh        1 MOL     -0.869071
    175 H82        -3.1370   -4.3590    2.4940 ho        1 MOL      0.429385
    176 H83        -2.6550   -4.3360    3.9320 ho        1 MOL      0.429385
    177 O24         1.0110   -3.6810    3.7730 oh        1 MOL     -0.869071
    178 H84         1.3810   -4.5610    3.7990 ho        1 MOL      0.429385
    179 H85         1.1190   -3.3400    4.6560 ho        1 MOL      0.429385
    180 O25        -0.3080   -0.6640   -0.1550 oh        1 MOL     -0.869071
    181 H86         0.1940    0.1310   -0.3420 ho        1 MOL      0.429385
    182 H87        -0.7360   -0.8780   -0.9780 ho        1 MOL      0.429385
    183 O26        -0.6250   -5.3930    1.5700 oh        1 MOL     -0.869071
    184 H88        -1.4250   -5.8100    1.2400 ho        1 MOL      0.429385
    185 H89        -0.2120   -6.0680    2.1180 ho        1 MOL      0.429385
    186 O27         1.0550   -0.4620    2.5070 oh        1 MOL     -0.869071
    187 H90         1.4450   -0.5390    3.3700 ho        1 MOL      0.429385
    188 H91         0.9270    0.4730    2.3740 ho        1 MOL      0.429385
    189 O28         1.8140   -3.5150    0.6480 oh        1 MOL     -0.869071
    190 H92         2.0780   -4.2410    1.2200 ho        1 MOL      0.429385
    191 H93         2.6290   -3.0620    0.4410 ho        1 MOL      0.429385
@<TRIPOS>BOND
     1    1    2 1   
     2    1    4 1   
     3    1    5 1   
     4    1    6 1   
     5    2    3 2   
     6    2    7 1   
     7    7    8 1   
     8    7   15 1   
     9    8    9 1   
    10    8   11 1   
    11    8   16 1   
    12    9   10 2   
    13    9   19 1   
    14   11   12 1   
    15   11   17 1   
    16   11   18 1   
    17   12   13 1   
    18   12   14 1   
    19   19   20 1   
    20   19   28 1   
    21   20   21 1   
    22   20   23 1   
    23   20   29 1   
    24   21   22 2   
    25   21   41 1   
    26   23   24 1   
    27   23   30 1   
    28   23   31 1   
    29   24   25 1   
    30   24   32 1   
    31   24   33 1   
    32   25   26 1   
    33   25   34 1   
    34   25   35 1   
    35   26   27 1   
    36   26   36 1   
    37   26   37 1   
    38   27   38 1   
    39   27   39 1   
    40   27   40 1   
    41   41   42 1   
    42   41   49 1   
    43   42   43 1   
    44   42   45 1   
    45   42   50 1   
    46   43   44 2   
    47   43   53 1   
    48   45   46 1   
    49   45   51 1   
    50   45   52 1   
    51   46   47 1   
    52   46   48 1   
    53   53   54 1   
    54   53   57 1   
    55   54   55 1   
    56   54   58 1   
    57   54   59 1   
    58   55   56 2   
    59   55   60 1   
    60   60   61 1   
    61   60   68 1   
    62   61   62 1   
    63   61   64 1   
    64   61   69 1   
    65   62   63 2   
    66   62   74 1   
    67   64   65 1   
    68   64   70 1   
    69   64   71 1   
    70   65   66 1   
    71   65   67 2   
    72   66   72 1   
    73   66   73 1   
    74   74   75 1   
    75   74   78 1   
    76   75   76 1   
    77   75   79 1   
    78   75   80 1   
    79   76   77 2   
    80   76   81 1   
    81   81   82 1   
    82   81   93 1   
    83   82   83 1   
    84   82   85 1   
    85   82   94 1   
    86   83   84 2   
    87   83  102 1   
    88   85   86 1   
    89   85   95 1   
    90   85   96 1   
    91   86   87 ar  
    92   86   88 ar  
    93   87   89 ar  
    94   87   97 1   
    95   88   90 ar  
    96   88   98 1   
    97   89   91 ar  
    98   89   99 1   
    99   90   91 ar  
   100   90  100 1   
   101   91   92 1   
   102   92  101 1   
   103  102  103 1   
   104  102  110 1   
   105  103  104 1   
   106  103  106 1   
   107  103  111 1   
   108  104  105 2   
   109  104  121 1   
   110  106  107 1   
   111  106  108 1   
   112  106  112 1   
   113  107  109 1   
   114  107  113 1   
   115  107  114 1   
   116  108  115 1   
   117  108  116 1   
   118  108  117 1   
   119  109  118 1   
   120  109  119 1   
   121  109  120 1   
   122  121  122 1   
   123  121  127 1   
   124  122  123 1   
   125  122  125 1   
   126  122  128 1   
   127  123  124 2   
   128  123  132 1   
   129  125  126 1   
   130  125  129 1   
   131  125  130 1   
   132  126  131 1   
   133  132  133 1   
   134  132  137 1   
   135  133  134 1   
   136  133  136 1   
   137  133  138 1   
   138  134  135 2   
   139  134  142 1   
   140  136  139 1   
   141  136  140 1   
   142  136  141 1   
   143  142  143 1   
   144  142  147 1   
   145  143  144 1   
   146  143  146 1   
   147  143  148 1   
   148  144  145 2   
   149  144  152 1   
   150  146  149 1   
   151  146  150 1   
   152  146  151 1   
   153  152  153 1   
   154  152  161 1   
   155  153  154 1   
   156  153  156 1   
   157  153  162 1   
   158  154  155 2   
   159  154  167 1   
   160  156  157 1   
   161  156  163 1   
   162  156  164 1   
   163  157  158 1   
   164  157  165 1   
   165  157  166 1   
   166  158  159 1   
   167  158  160 1   
   168  167  168 1   
   169  167  172 1   
   170  168  169 1   
   171  168  170 1   
   172  168  171 1   
   173  174  175 1   
   174  174  176 1   
   175  177  178 1   
   176  177  179 1   
   177  180  181 1   
   178  180  182 1   
   179  183  184 1   
   180  183  185 1   
   181  186  187 1   
   182  186  188 1   
   183  189  190 1   
   184  189  191 1   
@<TRIPOS>SUBSTRUCTURE
     1 MOL         1 TEMP              0 ****  ****    0 ROOT
