@<TRIPOS>MOLECULE
MOL
  195   189     1     0     0
SMALL
resp


@<TRIPOS>ATOM
      1 C1         -6.0150   -4.1780    2.5630 c3        1 MOL     -0.339895
      2 C2         -4.8430   -3.5070    1.7960 c         1 MOL      0.819393
      3 O1         -4.3470   -2.4860    2.3190 o         1 MOL     -0.530113
      4 H1         -6.9390   -4.0510    1.9990 hc        1 MOL      0.063346
      5 H2         -5.8090   -5.2410    2.6860 hc        1 MOL      0.063346
      6 H3         -6.1220   -3.7130    3.5430 hc        1 MOL      0.063346
      7 N1         -4.3770   -4.0510    0.6240 n         1 MOL     -0.838506
      8 C3         -3.2110   -3.6410   -0.1660 c3        1 MOL      0.014260
      9 C4         -1.8790   -3.4760    0.5670 c         1 MOL      0.537885
     10 O2         -1.0060   -2.6250    0.2460 o         1 MOL     -0.563939
     11 C5         -3.5940   -2.5550   -1.2530 c3        1 MOL     -0.057370
     12 C6         -5.0690   -2.5030   -1.7230 c         1 MOL      0.713998
     13 O3         -5.9010   -1.8690   -1.0850 o         1 MOL     -0.751808
     14 O4         -5.4700   -3.1050   -2.7790 o         1 MOL     -0.751808
     15 H4         -4.8140   -4.9110    0.3260 hn        1 MOL      0.360034
     16 H5         -2.9970   -4.5240   -0.7610 h1        1 MOL      0.113196
     17 H6         -3.0450   -2.6080   -2.1910 hc        1 MOL      0.070257
     18 H7         -3.4910   -1.5730   -0.7860 hc        1 MOL      0.070257
     19 N2         -1.7720   -4.2800    1.6820 n         1 MOL     -0.423293
     20 C7         -0.5640   -4.4130    2.5090 c3        1 MOL     -0.064471
     21 C8          0.2100   -5.7450    2.1170 c         1 MOL      0.459149
     22 O5         -0.1900   -6.8380    2.6300 o         1 MOL     -0.574605
     23 C9         -0.9090   -4.2900    4.0470 c3        1 MOL      0.207507
     24 C10        -1.8650   -3.1620    4.3080 c3        1 MOL      0.280456
     25 C11         0.4360   -4.1040    4.8420 c3        1 MOL     -0.266550
     26 C12        -1.9810   -2.8650    5.8020 c3        1 MOL     -0.274515
     27 H8         -2.4730   -4.9660    1.9270 hn        1 MOL      0.299533
     28 H9          0.0320   -3.5460    2.2320 h1        1 MOL      0.080935
     29 H10        -1.4320   -5.1920    4.3590 hc        1 MOL     -0.075182
     30 H11        -2.8780   -3.3200    3.9440 hc        1 MOL     -0.035867
     31 H12        -1.4930   -2.2770    3.7820 hc        1 MOL     -0.035867
     32 H13         0.7290   -3.0560    4.8090 hc        1 MOL      0.063377
     33 H14         0.3150   -4.3800    5.8960 hc        1 MOL      0.063377
     34 H15         1.1620   -4.8740    4.5810 hc        1 MOL      0.063377
     35 H16        -2.6720   -2.0350    5.9230 hc        1 MOL      0.040262
     36 H17        -2.2430   -3.8030    6.2930 hc        1 MOL      0.040262
     37 H18        -1.0230   -2.6060    6.2480 hc        1 MOL      0.040262
     38 N3          1.2510   -5.7240    1.2460 n         1 MOL     -0.386881
     39 C13         1.8870   -4.6350    0.4400 c3        1 MOL      0.110049
     40 C14         2.5200   -5.2430   -0.8470 c         1 MOL      0.367003
     41 O6          2.7590   -6.4280   -0.8310 o         1 MOL     -0.526043
     42 C15         3.0540   -4.1050    1.3080 c3        1 MOL     -0.120242
     43 C16         3.7970   -2.9370    0.7610 c         1 MOL      0.676287
     44 O7          4.9400   -3.1750    0.2690 o         1 MOL     -0.693137
     45 O8          3.2570   -1.7860    0.8080 o         1 MOL     -0.693137
     46 H19         1.7710   -6.5850    1.1670 hn        1 MOL      0.268789
     47 H20         1.2020   -3.8580    0.0950 h1        1 MOL      0.057143
     48 H21         3.7610   -4.9100    1.5030 hc        1 MOL      0.027349
     49 H22         2.5890   -3.9260    2.2790 hc        1 MOL      0.027349
     50 N4          2.9690   -4.5150   -1.8220 n         1 MOL     -0.259527
     51 C17         3.7640   -5.0530   -2.9310 c3        1 MOL     -0.050619
     52 C18         5.0550   -4.4060   -3.3430 c         1 MOL      0.695106
     53 O9          5.5140   -4.6920   -4.4500 o         1 MOL     -0.639427
     54 H23         2.7890   -3.5290   -1.7600 hn        1 MOL      0.283032
     55 H24         3.1020   -5.0670   -3.8000 h1        1 MOL      0.055517
     56 H25         4.0680   -6.0600   -2.6690 h1        1 MOL      0.055517
     57 N5          5.6540   -3.5050   -2.6060 n         1 MOL     -0.557167
     58 C19         6.7740   -2.6800   -3.0200 c3        1 MOL      0.115806
     59 C20         7.7610   -2.2990   -1.8380 c         1 MOL      0.429869
     60 O10         8.9630   -2.1650   -2.0880 o         1 MOL     -0.611450
     61 C21         6.2690   -1.3380   -3.5760 c3        1 MOL     -0.139040
     62 C22         5.1620   -0.6420   -2.8570 c         1 MOL      0.676748
     63 O11         5.4060   -0.0420   -1.7570 o         1 MOL     -0.675238
     64 O12         4.0420   -0.7890   -3.3770 o         1 MOL     -0.675238
     65 H26         5.1380   -3.1790   -1.8020 hn        1 MOL      0.309347
     66 H27         7.4250   -3.1990   -3.7270 h1        1 MOL      0.070869
     67 H28         5.9640   -1.5620   -4.5980 hc        1 MOL      0.014717
     68 H29         7.0700   -0.6260   -3.7310 hc        1 MOL      0.014717
     69 N6          7.3310   -2.0250   -0.6660 n         1 MOL     -0.237296
     70 C23         8.1720   -1.5630    0.4370 c3        1 MOL     -0.135591
     71 C24         8.5230   -0.1150    0.3840 c         1 MOL      0.621404
     72 O13         9.4950    0.3040    1.0330 o         1 MOL     -0.616616
     73 H30         6.3360   -2.0280   -0.5030 hn        1 MOL      0.260875
     74 H31         9.1190   -2.0970    0.5180 h1        1 MOL      0.079059
     75 H32         7.6490   -1.7770    1.3670 h1        1 MOL      0.079059
     76 N7          7.6200    0.6190   -0.3110 n         1 MOL     -0.267984
     77 C25         7.6450    2.0610   -0.5280 c3        1 MOL      0.023250
     78 C26         7.4190    2.9490    0.7120 c         1 MOL      0.508101
     79 O14         7.9730    4.0410    0.8590 o         1 MOL     -0.533112
     80 C27         8.8400    2.4530   -1.3750 c3        1 MOL     -0.057698
     81 C28         9.0930    1.5300   -2.6140 c3        1 MOL      0.006322
     82 C29        10.0240    2.0750   -3.6770 c         1 MOL      0.587589
     83 N8         10.4410    1.2990   -4.6050 n         1 MOL     -0.735397
     84 O15        10.4200    3.2460   -3.6790 o         1 MOL     -0.603449
     85 H33         6.8080    0.0470   -0.5030 hn        1 MOL      0.213372
     86 H34         6.7960    2.3330   -1.1570 h1        1 MOL      0.077998
     87 H35         9.7290    2.4190   -0.7520 hc        1 MOL      0.026884
     88 H36         8.6850    3.4940   -1.6870 hc        1 MOL      0.026884
     89 H37         8.2110    1.2200   -3.1700 hc        1 MOL      0.012205
     90 H38         9.5330    0.5800   -2.3140 hc        1 MOL      0.012205
     91 H39        10.1360    0.3390   -4.5280 hn        1 MOL      0.341730
     92 H40        11.0710    1.7320   -5.2590 hn        1 MOL      0.341730
     93 N9          6.6190    2.3980    1.6520 n         1 MOL     -0.290363
     94 C30         6.3320    3.0330    2.9710 c3        1 MOL     -0.109164
     95 C31         4.8290    3.1030    3.3340 c         1 MOL      0.442347
     96 O16         4.4670    3.5110    4.5030 o         1 MOL     -0.565275
     97 C32         6.9690    2.3460    4.1620 c3        1 MOL      0.416073
     98 C33         6.6650    0.8940    4.1960 c3        1 MOL     -0.245672
     99 C34         8.5070    2.4780    4.1460 c3        1 MOL     -0.245672
    100 H41         6.4960    1.3990    1.5640 hn        1 MOL      0.225233
    101 H42         6.7320    4.0490    2.9890 h1        1 MOL      0.083394
    102 H43         6.6480    2.8450    5.0810 hc        1 MOL     -0.058928
    103 H44         6.9790    0.5900    5.1900 hc        1 MOL      0.036655
    104 H45         5.5950    0.7590    4.2620 hc        1 MOL      0.036655
    105 H46         7.1750    0.2880    3.4480 hc        1 MOL      0.036655
    106 H47         8.8800    1.9360    5.0080 hc        1 MOL      0.036655
    107 H48         8.7380    1.8330    3.2930 hc        1 MOL      0.036655
    108 H49         8.9690    3.4690    4.1300 hc        1 MOL      0.036655
    109 N10         3.9540    2.6990    2.4070 n         1 MOL     -0.322359
    110 C35         2.5020    2.4590    2.4680 c3        1 MOL      0.118051
    111 C36         1.7720    2.5120    1.1490 c         1 MOL      0.621595
    112 O17         2.4530    2.5120    0.1060 o         1 MOL     -0.516803
    113 C37         2.4200    1.0250    3.0720 c3        1 MOL     -0.171174
    114 C38         1.0910    0.3360    2.8720 c         1 MOL      0.685789
    115 N11         1.0450   -0.7940    2.1940 n         1 MOL     -0.945174
    116 O18         0.1040    0.7550    3.3640 o         1 MOL     -0.623102
    117 H50         4.4010    2.4930    1.5270 hn        1 MOL      0.169831
    118 H51         2.0020    3.1510    3.1540 h1        1 MOL      0.035403
    119 H52         2.6650    1.0500    4.1290 hc        1 MOL      0.072132
    120 H53         3.1780    0.4390    2.5640 hc        1 MOL      0.072132
    121 H54         1.8170   -1.1790    1.6790 hn        1 MOL      0.463328
    122 H55         0.1630   -1.2890    2.1340 hn        1 MOL      0.463328
    123 N12         0.4250    2.5150    1.1630 n         1 MOL     -0.672065
    124 C39        -0.3950    2.7040   -0.0730 c3        1 MOL      0.117767
    125 C40        -1.7380    3.1700    0.2750 c         1 MOL      0.407909
    126 O19        -2.4340    2.4480    1.0550 o         1 MOL     -0.529974
    127 C41        -0.5460    1.3650   -0.8440 c3        1 MOL     -0.138567
    128 C42        -1.3620    1.5360   -2.1030 ca        1 MOL     -0.011545
    129 C43        -0.7840    2.2110   -3.2380 ca        1 MOL     -0.170263
    130 C44        -2.7050    1.1500   -2.0680 ca        1 MOL     -0.170263
    131 C45        -1.6300    2.4810   -4.3270 ca        1 MOL     -0.222631
    132 C46        -3.5530    1.4540   -3.1940 ca        1 MOL     -0.222631
    133 C47        -3.0060    2.1500   -4.2900 ca        1 MOL      0.357131
    134 O20        -3.7190    2.5720   -5.3710 oh        1 MOL     -0.537180
    135 H56        -0.0390    2.1700    1.9960 hn        1 MOL      0.370502
    136 H57        -0.0190    3.5180   -0.7000 h1        1 MOL      0.065886
    137 H58        -1.0710    0.6540   -0.2110 hc        1 MOL      0.123539
    138 H59         0.4830    1.0530   -1.0520 hc        1 MOL      0.123539
    139 H60         0.2570    2.5090   -3.1770 ha        1 MOL      0.150600
    140 H61        -3.1670    0.6620   -1.2330 ha        1 MOL      0.150600
    141 H62        -1.2130    2.6550   -5.3080 ha        1 MOL      0.115636
    142 H63        -4.5900    1.1490   -3.2870 ha        1 MOL      0.115636
    143 H64        -3.2230    3.1500   -5.9540 ho        1 MOL      0.370323
    144 N13        -2.1460    4.3860   -0.0980 n         1 MOL     -0.188930
    145 C48        -3.4130    4.9570    0.2010 c3        1 MOL     -0.071146
    146 C49        -4.3860    4.7460   -0.9710 c         1 MOL      0.632514
    147 O21        -4.0570    5.1900   -2.0770 o         1 MOL     -0.569875
    148 C50        -3.3410    6.3870    0.8020 c3        1 MOL     -0.126232
    149 C51        -2.3870    7.3040    0.1290 c3        1 MOL      0.045678
    150 C52        -2.7550    8.7600    0.2300 c         1 MOL      0.651057
    151 O22        -3.3300    9.3130   -0.7430 o         1 MOL     -0.665524
    152 O23        -2.3030    9.3830    1.2090 o         1 MOL     -0.665524
    153 H65        -1.5430    4.8920   -0.7180 hn        1 MOL      0.220215
    154 H66        -3.8220    4.2780    0.9520 h1        1 MOL      0.182167
    155 H67        -2.9860    6.3480    1.8330 hc        1 MOL      0.042856
    156 H68        -4.2850    6.9330    0.7930 hc        1 MOL      0.042856
    157 H69        -2.3870    7.0290   -0.9260 hc        1 MOL     -0.034396
    158 H70        -1.3740    7.0880    0.4760 hc        1 MOL     -0.034396
    159 N14        -5.4450    4.0060   -0.8620 n         1 MOL     -0.486492
    160 C53        -5.7160    2.8430    0.0410 c3        1 MOL      0.104640
    161 C54        -5.7420    3.1630    1.5640 c         1 MOL      0.154093
    162 O24        -5.9810    4.2920    1.8890 o         1 MOL     -0.450369
    163 C55        -7.1170    2.2390   -0.2800 c3        1 MOL      0.192329
    164 C56        -7.2900    1.9500   -1.7380 c3        1 MOL     -0.727110
    165 C57        -8.5720    1.1960   -2.1470 c         1 MOL      0.733657
    166 O25        -8.4990   -0.0540   -2.1560 o         1 MOL     -0.635900
    167 O26        -9.6060    1.7870   -2.3610 o         1 MOL     -0.635900
    168 H71        -6.0730    4.1780   -1.6200 hn        1 MOL      0.296940
    169 H72        -4.9840    2.0350    0.0280 h1        1 MOL      0.054894
    170 H73        -7.8520    3.0350   -0.1560 hc        1 MOL      0.014942
    171 H74        -7.4120    1.4120    0.3530 hc        1 MOL      0.014942
    172 H75        -6.4130    1.4260   -2.1340 hc        1 MOL      0.190328
    173 H76        -7.4490    2.8750   -2.2890 hc        1 MOL      0.190328
    174 N15        -5.8160    2.1960    2.4620 n         1 MOL     -0.240888
    175 C58        -5.5630    2.5200    3.9430 c3        1 MOL     -0.187069
    176 H77        -6.5100    2.7450    4.4330 h1        1 MOL      0.105610
    177 H78        -5.0970    1.6630    4.4290 h1        1 MOL      0.105610
    178 H79        -4.9020    3.3840    4.0180 h1        1 MOL      0.105610
    179 H80        -5.9110    1.2360    2.1490 hn        1 MOL      0.261109
    180 Ca1        -8.6270   -2.1840   -0.8580 Ca        1 MOL      1.687071
    181 O27        -8.1460   -3.6050   -3.0830 oh        1 MOL     -0.841885
    182 H81        -8.4650   -4.5090   -3.1290 ho        1 MOL      0.390728
    183 H82        -7.2020   -3.6750   -3.2480 ho        1 MOL      0.390728
    184 O28       -10.7130   -1.8980   -2.6930 oh        1 MOL     -0.841885
    185 H83       -10.7800   -1.2180   -3.3600 ho        1 MOL      0.390728
    186 H84       -10.6860   -2.7140   -3.1790 ho        1 MOL      0.390728
    187 O29       -10.7190   -3.9050   -0.1340 oh        1 MOL     -0.841885
    188 H85       -11.5630   -3.4780   -0.3070 ho        1 MOL      0.390728
    189 H86       -10.9610   -4.7920    0.1360 ho        1 MOL      0.390728
    190 O30        -7.7460   -1.2030    1.5280 oh        1 MOL     -0.841885
    191 H87        -6.8530   -0.8340    1.5090 ho        1 MOL      0.390728
    192 H88        -8.2360   -0.6130    2.1080 ho        1 MOL      0.390728
    193 O31       -10.7040   -0.4600    0.2330 oh        1 MOL     -0.841885
    194 H89       -10.8840   -0.3070    1.1580 ho        1 MOL      0.390728
    195 H90       -11.4610   -0.0970   -0.2260 ho        1 MOL      0.390728
@<TRIPOS>BOND
     1    1    2 1   
     2    1    4 1   
     3    1    5 1   
     4    1    6 1   
     5    2    3 2   
     6    2    7 1   
     7    7    8 1   
     8    7   15 1   
     9    8    9 1   
    10    8   11 1   
    11    8   16 1   
    12    9   10 2   
    13    9   19 1   
    14   11   12 1   
    15   11   17 1   
    16   11   18 1   
    17   12   13 1   
    18   12   14 1   
    19   19   20 1   
    20   19   27 1   
    21   20   21 1   
    22   20   23 1   
    23   20   28 1   
    24   21   22 2   
    25   21   38 1   
    26   23   24 1   
    27   23   25 1   
    28   23   29 1   
    29   24   26 1   
    30   24   30 1   
    31   24   31 1   
    32   25   32 1   
    33   25   33 1   
    34   25   34 1   
    35   26   35 1   
    36   26   36 1   
    37   26   37 1   
    38   38   39 1   
    39   38   46 1   
    40   39   40 1   
    41   39   42 1   
    42   39   47 1   
    43   40   41 2   
    44   40   50 1   
    45   42   43 1   
    46   42   48 1   
    47   42   49 1   
    48   43   44 1   
    49   43   45 1   
    50   50   51 1   
    51   50   54 1   
    52   51   52 1   
    53   51   55 1   
    54   51   56 1   
    55   52   53 2   
    56   52   57 1   
    57   57   58 1   
    58   57   65 1   
    59   58   59 1   
    60   58   61 1   
    61   58   66 1   
    62   59   60 2   
    63   59   69 1   
    64   61   62 1   
    65   61   67 1   
    66   61   68 1   
    67   62   63 1   
    68   62   64 1   
    69   69   70 1   
    70   69   73 1   
    71   70   71 1   
    72   70   74 1   
    73   70   75 1   
    74   71   72 2   
    75   71   76 1   
    76   76   77 1   
    77   76   85 1   
    78   77   78 1   
    79   77   80 1   
    80   77   86 1   
    81   78   79 2   
    82   78   93 1   
    83   80   81 1   
    84   80   87 1   
    85   80   88 1   
    86   81   82 1   
    87   81   89 1   
    88   81   90 1   
    89   82   83 1   
    90   82   84 2   
    91   83   91 1   
    92   83   92 1   
    93   93   94 1   
    94   93  100 1   
    95   94   95 1   
    96   94   97 1   
    97   94  101 1   
    98   95   96 2   
    99   95  109 1   
   100   97   98 1   
   101   97   99 1   
   102   97  102 1   
   103   98  103 1   
   104   98  104 1   
   105   98  105 1   
   106   99  106 1   
   107   99  107 1   
   108   99  108 1   
   109  109  110 1   
   110  109  117 1   
   111  110  111 1   
   112  110  113 1   
   113  110  118 1   
   114  111  112 2   
   115  111  123 1   
   116  113  114 1   
   117  113  119 1   
   118  113  120 1   
   119  114  115 1   
   120  114  116 2   
   121  115  121 1   
   122  115  122 1   
   123  123  124 1   
   124  123  135 1   
   125  124  125 1   
   126  124  127 1   
   127  124  136 1   
   128  125  126 2   
   129  125  144 1   
   130  127  128 1   
   131  127  137 1   
   132  127  138 1   
   133  128  129 ar  
   134  128  130 ar  
   135  129  131 ar  
   136  129  139 1   
   137  130  132 ar  
   138  130  140 1   
   139  131  133 ar  
   140  131  141 1   
   141  132  133 ar  
   142  132  142 1   
   143  133  134 1   
   144  134  143 1   
   145  144  145 1   
   146  144  153 1   
   147  145  146 1   
   148  145  148 1   
   149  145  154 1   
   150  146  147 2   
   151  146  159 1   
   152  148  149 1   
   153  148  155 1   
   154  148  156 1   
   155  149  150 1   
   156  149  157 1   
   157  149  158 1   
   158  150  151 1   
   159  150  152 1   
   160  159  160 1   
   161  159  168 1   
   162  160  161 1   
   163  160  163 1   
   164  160  169 1   
   165  161  162 2   
   166  161  174 1   
   167  163  164 1   
   168  163  170 1   
   169  163  171 1   
   170  164  165 1   
   171  164  172 1   
   172  164  173 1   
   173  165  166 1   
   174  165  167 1   
   175  174  175 1   
   176  174  179 1   
   177  175  176 1   
   178  175  177 1   
   179  175  178 1   
   180  181  182 1   
   181  181  183 1   
   182  184  185 1   
   183  184  186 1   
   184  187  188 1   
   185  187  189 1   
   186  190  191 1   
   187  190  192 1   
   188  193  194 1   
   189  193  195 1   
@<TRIPOS>SUBSTRUCTURE
     1 MOL         1 TEMP              0 ****  ****    0 ROOT
