@<TRIPOS>MOLECULE
MOL
  185   180     1     0     0
SMALL
resp


@<TRIPOS>ATOM
      1 C1          4.3920   -2.2980    5.6610 c3        1 MOL     -0.545224
      2 C2          3.4950   -1.8390    4.4860 c         1 MOL      0.752040
      3 O1          2.3550   -1.3910    4.6890 o         1 MOL     -0.638493
      4 H1          4.9440   -3.1910    5.3690 hc        1 MOL      0.142236
      5 H2          5.0940   -1.5040    5.9140 hc        1 MOL      0.142236
      6 H3          3.7700   -2.5240    6.5270 hc        1 MOL      0.142236
      7 N1          3.9730   -1.8310    3.2710 n         1 MOL     -0.581031
      8 C3          3.2080   -1.4980    2.0430 c3        1 MOL      0.224743
      9 C4          2.6260   -2.6680    1.2990 c         1 MOL      0.031053
     10 O2          1.6780   -2.4700    0.6020 o         1 MOL     -0.330781
     11 C5          4.0560   -0.5420    1.1640 c3        1 MOL     -0.020049
     12 C6          5.3020   -1.1620    0.7000 c         1 MOL      0.577367
     13 O3          5.2080   -2.2790    0.1590 o         1 MOL     -0.649952
     14 O4          6.3480   -0.5230    0.9640 o         1 MOL     -0.649952
     15 H4          4.8780   -2.2720    3.1490 hn        1 MOL      0.313994
     16 H5          2.4010   -0.8370    2.3510 h1        1 MOL      0.076332
     17 H6          4.2210    0.3780    1.7240 hc        1 MOL     -0.007499
     18 H7          3.4940   -0.1740    0.3010 hc        1 MOL     -0.007499
     19 N2          3.2070   -3.8820    1.4570 n         1 MOL     -0.145115
     20 C7          2.7670   -5.0950    0.8480 c3        1 MOL     -0.060560
     21 C8          3.1260   -5.1370   -0.6660 c         1 MOL      0.575648
     22 O5          3.1670   -6.1700   -1.2720 o         1 MOL     -0.543212
     23 C9          3.3850   -6.2860    1.5760 c3        1 MOL     -0.168280
     24 C10         3.0170   -6.4100    3.1080 c3        1 MOL      0.029673
     25 C11         3.9320   -7.3850    3.8250 c3        1 MOL     -0.032474
     26 C12         3.5540   -7.2960    5.2990 c3        1 MOL      0.193841
     27 N3          4.0470   -8.4160    6.1240 n4        1 MOL     -0.415261
     28 H8          4.0200   -3.9250    2.0520 hn        1 MOL      0.241233
     29 H9          1.6910   -5.0630    1.0470 h1        1 MOL      0.099654
     30 H10         4.4680   -6.2430    1.4410 hc        1 MOL      0.084389
     31 H11         3.1560   -7.2650    1.1450 hc        1 MOL      0.084389
     32 H12         1.9920   -6.7750    3.1510 hc        1 MOL      0.010016
     33 H13         3.0550   -5.4300    3.5650 hc        1 MOL      0.010016
     34 H14         4.9870   -7.1330    3.6880 hc        1 MOL      0.025662
     35 H15         3.7550   -8.3680    3.4080 hc        1 MOL      0.025662
     36 H16         2.4660   -7.2390    5.3320 hx        1 MOL      0.014074
     37 H17         3.9810   -6.3210    5.5630 hx        1 MOL      0.014074
     38 H18         3.6620   -9.2720    5.7480 hn        1 MOL      0.333977
     39 H19         5.0560   -8.5130    6.1860 hn        1 MOL      0.333977
     40 H20         3.7360   -8.3590    7.0840 hn        1 MOL      0.333977
     41 N4          3.1980   -3.9830   -1.3810 n         1 MOL     -0.381962
     42 C13         3.1750   -3.8760   -2.8700 c3        1 MOL      0.023746
     43 C14         3.6740   -2.5180   -3.3260 c         1 MOL      0.456885
     44 O6          3.6180   -2.1930   -4.4600 o         1 MOL     -0.501504
     45 C15         1.7480   -4.0900   -3.3400 c3        1 MOL     -0.248263
     46 C16         0.6800   -3.3120   -2.5030 c         1 MOL      0.668356
     47 O7          0.4620   -2.0750   -2.6910 o         1 MOL     -0.699338
     48 O8          0.0470   -3.8450   -1.5780 o         1 MOL     -0.699338
     49 H21         2.9650   -3.1370   -0.8890 hn        1 MOL      0.187705
     50 H22         3.7400   -4.6980   -3.3360 h1        1 MOL      0.127827
     51 H23         1.4620   -5.1460   -3.3460 hc        1 MOL      0.086070
     52 H24         1.6580   -3.8090   -4.3880 hc        1 MOL      0.086070
     53 N5          4.2060   -1.6870   -2.4030 n         1 MOL     -0.338062
     54 C17         4.8090   -0.4310   -2.8550 c3        1 MOL      0.064292
     55 C18         6.0650   -0.5360   -3.6930 c         1 MOL      0.591375
     56 O9          6.3870   -1.6270   -4.1270 o         1 MOL     -0.522689
     57 H25         4.3750   -2.1520   -1.5250 hn        1 MOL      0.226350
     58 H26         5.0410    0.0860   -1.9310 h1        1 MOL      0.049397
     59 H27         4.1510    0.2240   -3.4390 h1        1 MOL      0.049397
     60 N6          6.7480    0.5660   -4.0430 n         1 MOL     -0.608222
     61 C19         6.4760    1.9770   -3.7720 c3        1 MOL      0.387706
     62 C20         6.9400    2.2470   -2.3550 c         1 MOL      0.510580
     63 O10         8.0570    1.8440   -2.0400 o         1 MOL     -0.519957
     64 C21         7.2430    2.8470   -4.8430 c3        1 MOL     -0.444377
     65 C22         6.8200    4.3340   -4.6900 c         1 MOL      0.703522
     66 N7          7.3430    5.1910   -5.4770 n         1 MOL     -0.774456
     67 O11         6.1130    4.7660   -3.7960 o         1 MOL     -0.538381
     68 H28         7.4770    0.3580   -4.7140 hn        1 MOL      0.307779
     69 H29         5.4050    2.1060   -3.9080 h1        1 MOL     -0.005291
     70 H30         7.0140    2.5020   -5.8520 hc        1 MOL      0.122257
     71 H31         8.3200    2.8600   -4.6350 hc        1 MOL      0.122257
     72 H32         8.0120    4.8760   -6.1630 hn        1 MOL      0.360144
     73 H33         7.2420    6.1840   -5.3450 hn        1 MOL      0.360144
     74 N8          6.0500    2.5710   -1.3740 n         1 MOL     -0.561764
     75 C23         4.5770    2.8770   -1.4790 c3        1 MOL      0.208888
     76 C24         3.9540    3.4970   -0.1860 c         1 MOL      0.649699
     77 O12         4.7340    3.8210    0.7380 o         1 MOL     -0.542958
     78 H34         6.4370    2.4490   -0.4540 hn        1 MOL      0.329460
     79 H35         3.9720    2.0280   -1.7870 h1        1 MOL     -0.046641
     80 H36         4.4490    3.6250   -2.2700 h1        1 MOL     -0.046641
     81 N9          2.6560    3.7300   -0.0870 n         1 MOL     -0.594447
     82 C25         1.8240    4.1960    1.0560 c3        1 MOL      0.079540
     83 C26         0.4840    3.5140    0.9760 c         1 MOL      0.631980
     84 O13         0.1630    2.8570    0.0060 o         1 MOL     -0.548326
     85 C27         1.6920    5.7170    0.9920 c3        1 MOL     -0.142259
     86 C28         1.0240    6.3910    2.1380 ca        1 MOL      0.008663
     87 C29        -0.2640    6.9390    2.0440 ca        1 MOL     -0.102878
     88 C30         1.8100    6.6770    3.2690 ca        1 MOL     -0.102878
     89 C31        -0.8300    7.5650    3.2040 ca        1 MOL     -0.320853
     90 C32         1.2360    7.3030    4.4060 ca        1 MOL     -0.320853
     91 C33        -0.1310    7.7170    4.4120 ca        1 MOL      0.405420
     92 O14        -0.6620    8.0980    5.6010 oh        1 MOL     -0.519804
     93 H37         2.1280    3.5350   -0.9310 hn        1 MOL      0.293303
     94 H38         2.4030    3.9070    1.9320 h1        1 MOL      0.070007
     95 H39         1.2790    6.0350    0.0440 hc        1 MOL      0.094334
     96 H40         2.6930    6.1510    0.9760 hc        1 MOL      0.094334
     97 H41        -0.8840    6.8540    1.1630 ha        1 MOL      0.133526
     98 H42         2.8200    6.3070    3.2620 ha        1 MOL      0.133526
     99 H43        -1.8890    7.7630    3.1980 ha        1 MOL      0.147765
    100 H44         1.8130    7.4320    5.3090 ha        1 MOL      0.147765
    101 H45         0.0110    8.1590    6.2850 ho        1 MOL      0.384591
    102 N10        -0.3570    3.7540    1.9730 n         1 MOL     -0.437777
    103 C34        -1.7120    3.1510    2.1130 c3        1 MOL     -0.080540
    104 C35        -2.6230    3.7800    1.0470 c         1 MOL      0.658921
    105 O15        -2.5110    4.8890    0.6080 o         1 MOL     -0.503916
    106 C36        -2.3100    3.2260    3.5350 c3        1 MOL      0.191400
    107 C37        -1.9210    2.0010    4.3540 c3        1 MOL      0.038581
    108 C38        -2.0170    4.4920    4.3060 c3        1 MOL     -0.253150
    109 C39        -2.8350    1.8660    5.5840 c3        1 MOL     -0.231098
    110 H46        -0.0960    4.2280    2.8270 hn        1 MOL      0.232091
    111 H47        -1.5460    2.1110    1.8620 h1        1 MOL     -0.021545
    112 H48        -3.3980    3.2250    3.4810 hc        1 MOL      0.009086
    113 H49        -0.9050    2.1650    4.7090 hc        1 MOL      0.012463
    114 H50        -1.8340    1.0990    3.7460 hc        1 MOL      0.012463
    115 H51        -2.3760    5.3320    3.7010 hc        1 MOL      0.078827
    116 H52        -2.6170    4.4820    5.2170 hc        1 MOL      0.078827
    117 H53        -0.9310    4.6190    4.3950 hc        1 MOL      0.078827
    118 H54        -2.5220    2.5760    6.3440 hc        1 MOL      0.060692
    119 H55        -3.8760    2.1230    5.4120 hc        1 MOL      0.060692
    120 H56        -2.7890    0.8810    6.0420 hc        1 MOL      0.060692
    121 N11        -3.6300    2.9750    0.6120 n         1 MOL     -0.542940
    122 C40        -4.6150    3.2230   -0.4660 c3        1 MOL      0.000839
    123 C41        -4.8440    2.0160   -1.3360 c         1 MOL      0.583889
    124 O16        -4.7650    0.8490   -0.9790 o         1 MOL     -0.554254
    125 C42        -5.9410    3.7620    0.1400 c3        1 MOL      0.108998
    126 O17        -6.6070    2.7090    0.9300 oh        1 MOL     -0.517496
    127 H57        -3.6430    2.1230    1.1440 hn        1 MOL      0.294057
    128 H58        -4.0850    3.9350   -1.0970 h1        1 MOL      0.092010
    129 H59        -6.5570    4.0940   -0.6900 h1        1 MOL      0.024658
    130 H60        -5.7690    4.6630    0.7400 h1        1 MOL      0.024658
    131 H61        -7.2120    3.2140    1.4780 ho        1 MOL      0.382847
    132 N12        -5.2340    2.3660   -2.5930 n         1 MOL     -0.449415
    133 C43        -5.5410    1.5760   -3.8240 c3        1 MOL     -0.036518
    134 C44        -6.6550    0.4670   -3.6460 c         1 MOL      0.425943
    135 O18        -6.5290   -0.6210   -4.2580 o         1 MOL     -0.416283
    136 C45        -4.2410    0.9720   -4.4400 c3        1 MOL     -0.265441
    137 H62        -5.3190    3.3560   -2.7920 hn        1 MOL      0.279241
    138 H63        -5.8750    2.2500   -4.6180 h1        1 MOL      0.094603
    139 H64        -4.3580    0.4380   -5.3830 hc        1 MOL      0.106720
    140 H65        -3.4040    1.6560   -4.5680 hc        1 MOL      0.106720
    141 H66        -3.8770    0.0880   -3.9010 hc        1 MOL      0.106720
    142 N13        -7.6640    0.7390   -2.8730 n         1 MOL     -0.264081
    143 C46        -8.7790   -0.1140   -2.6990 c3        1 MOL     -0.028402
    144 C47        -8.3850   -1.6110   -2.5360 c         1 MOL      0.563941
    145 O19        -8.6910   -2.4500   -3.3830 o         1 MOL     -0.482817
    146 C48        -9.8140    0.1610   -3.7900 c3        1 MOL     -0.190967
    147 H67        -7.8510    1.7100   -2.6860 hn        1 MOL      0.243096
    148 H68        -9.2970    0.2010   -1.7950 h1        1 MOL      0.073098
    149 H69        -9.5280   -0.1590   -4.7910 hc        1 MOL      0.062836
    150 H70       -10.7720   -0.3320   -3.5850 hc        1 MOL      0.062836
    151 H71       -10.1910    1.1880   -3.7780 hc        1 MOL      0.062836
    152 N14        -7.7760   -1.9900   -1.4060 n         1 MOL     -0.460088
    153 C49        -7.3880   -3.3140   -0.9150 c3        1 MOL     -0.137511
    154 C50        -7.9250   -3.6800    0.5030 c         1 MOL      0.512040
    155 O20        -7.9960   -4.8570    0.8710 o         1 MOL     -0.515909
    156 C51        -5.8390   -3.4370   -0.8270 c3        1 MOL      0.188189
    157 C52        -5.2020   -2.3540    0.1060 c3        1 MOL     -0.370026
    158 C53        -3.6980   -2.4040    0.0010 c         1 MOL      0.904193
    159 O21        -3.0380   -2.5270   -1.0740 o         1 MOL     -0.784867
    160 O22        -3.1020   -2.0230    1.0310 o         1 MOL     -0.784867
    161 H72        -7.4420   -1.2170   -0.8560 hn        1 MOL      0.226391
    162 H73        -7.7800   -4.0630   -1.6090 h1        1 MOL      0.122192
    163 H74        -5.3910   -3.2220   -1.8040 hc        1 MOL      0.020385
    164 H75        -5.4350   -4.4320   -0.6890 hc        1 MOL      0.020385
    165 H76        -5.4620   -2.5560    1.1450 hc        1 MOL      0.091209
    166 H77        -5.5950   -1.3500   -0.0650 hc        1 MOL      0.091209
    167 N15        -8.2450   -2.6880    1.3860 n         1 MOL     -0.334927
    168 C54        -8.5050   -2.7950    2.8260 c3        1 MOL     -0.151854
    169 H78        -7.5710   -3.0000    3.3500 h1        1 MOL      0.087075
    170 H79        -8.9280   -1.8590    3.1900 h1        1 MOL      0.087075
    171 H80        -9.2090   -3.6080    3.0080 h1        1 MOL      0.087075
    172 H81        -8.1140   -1.7340    1.0860 hn        1 MOL      0.234703
    173 Ca1        -0.7210   -1.7520   -0.3590 Ca        1 MOL      1.727866
    174 O23        -0.6740   -0.5020    2.0130 oh        1 MOL     -0.844876
    175 H82        -0.2230    0.2920    2.3020 ho        1 MOL      0.416558
    176 H83        -1.0310   -0.8690    2.8160 ho        1 MOL      0.416558
    177 O24        -2.0260   -0.0360   -1.9530 oh        1 MOL     -0.844876
    178 H84        -2.9630   -0.2450   -1.9880 ho        1 MOL      0.416558
    179 H85        -1.9820    0.9160   -1.9570 ho        1 MOL      0.416558
    180 O25        -0.8350   -3.8780    1.3330 oh        1 MOL     -0.844876
    181 H86        -0.3580   -3.4940    2.0750 ho        1 MOL      0.416558
    182 H87        -1.1230   -4.7300    1.6590 ho        1 MOL      0.416558
    183 O26         0.9340    0.4110   -0.9090 oh        1 MOL     -0.844876
    184 H88         1.2620    0.7450   -1.7430 ho        1 MOL      0.416558
    185 H89         0.6740    1.1920   -0.4280 ho        1 MOL      0.416558
@<TRIPOS>BOND
     1    1    2 1   
     2    1    4 1   
     3    1    5 1   
     4    1    6 1   
     5    2    3 2   
     6    2    7 1   
     7    7    8 1   
     8    7   15 1   
     9    8    9 1   
    10    8   11 1   
    11    8   16 1   
    12    9   10 2   
    13    9   19 1   
    14   11   12 1   
    15   11   17 1   
    16   11   18 1   
    17   12   13 1   
    18   12   14 1   
    19   19   20 1   
    20   19   28 1   
    21   20   21 1   
    22   20   23 1   
    23   20   29 1   
    24   21   22 2   
    25   21   41 1   
    26   23   24 1   
    27   23   30 1   
    28   23   31 1   
    29   24   25 1   
    30   24   32 1   
    31   24   33 1   
    32   25   26 1   
    33   25   34 1   
    34   25   35 1   
    35   26   27 1   
    36   26   36 1   
    37   26   37 1   
    38   27   38 1   
    39   27   39 1   
    40   27   40 1   
    41   41   42 1   
    42   41   49 1   
    43   42   43 1   
    44   42   45 1   
    45   42   50 1   
    46   43   44 2   
    47   43   53 1   
    48   45   46 1   
    49   45   51 1   
    50   45   52 1   
    51   46   47 1   
    52   46   48 1   
    53   53   54 1   
    54   53   57 1   
    55   54   55 1   
    56   54   58 1   
    57   54   59 1   
    58   55   56 2   
    59   55   60 1   
    60   60   61 1   
    61   60   68 1   
    62   61   62 1   
    63   61   64 1   
    64   61   69 1   
    65   62   63 2   
    66   62   74 1   
    67   64   65 1   
    68   64   70 1   
    69   64   71 1   
    70   65   66 1   
    71   65   67 2   
    72   66   72 1   
    73   66   73 1   
    74   74   75 1   
    75   74   78 1   
    76   75   76 1   
    77   75   79 1   
    78   75   80 1   
    79   76   77 2   
    80   76   81 1   
    81   81   82 1   
    82   81   93 1   
    83   82   83 1   
    84   82   85 1   
    85   82   94 1   
    86   83   84 2   
    87   83  102 1   
    88   85   86 1   
    89   85   95 1   
    90   85   96 1   
    91   86   87 ar  
    92   86   88 ar  
    93   87   89 ar  
    94   87   97 1   
    95   88   90 ar  
    96   88   98 1   
    97   89   91 ar  
    98   89   99 1   
    99   90   91 ar  
   100   90  100 1   
   101   91   92 1   
   102   92  101 1   
   103  102  103 1   
   104  102  110 1   
   105  103  104 1   
   106  103  106 1   
   107  103  111 1   
   108  104  105 2   
   109  104  121 1   
   110  106  107 1   
   111  106  108 1   
   112  106  112 1   
   113  107  109 1   
   114  107  113 1   
   115  107  114 1   
   116  108  115 1   
   117  108  116 1   
   118  108  117 1   
   119  109  118 1   
   120  109  119 1   
   121  109  120 1   
   122  121  122 1   
   123  121  127 1   
   124  122  123 1   
   125  122  125 1   
   126  122  128 1   
   127  123  124 2   
   128  123  132 1   
   129  125  126 1   
   130  125  129 1   
   131  125  130 1   
   132  126  131 1   
   133  132  133 1   
   134  132  137 1   
   135  133  134 1   
   136  133  136 1   
   137  133  138 1   
   138  134  135 2   
   139  134  142 1   
   140  136  139 1   
   141  136  140 1   
   142  136  141 1   
   143  142  143 1   
   144  142  147 1   
   145  143  144 1   
   146  143  146 1   
   147  143  148 1   
   148  144  145 2   
   149  144  152 1   
   150  146  149 1   
   151  146  150 1   
   152  146  151 1   
   153  152  153 1   
   154  152  161 1   
   155  153  154 1   
   156  153  156 1   
   157  153  162 1   
   158  154  155 2   
   159  154  167 1   
   160  156  157 1   
   161  156  163 1   
   162  156  164 1   
   163  157  158 1   
   164  157  165 1   
   165  157  166 1   
   166  158  159 1   
   167  158  160 1   
   168  167  168 1   
   169  167  172 1   
   170  168  169 1   
   171  168  170 1   
   172  168  171 1   
   173  174  175 1   
   174  174  176 1   
   175  177  178 1   
   176  177  179 1   
   177  180  181 1   
   178  180  182 1   
   179  183  184 1   
   180  183  185 1   
@<TRIPOS>SUBSTRUCTURE
     1 MOL         1 TEMP              0 ****  ****    0 ROOT
