@<TRIPOS>MOLECULE
MOL
  192   187     1     0     0
SMALL
resp


@<TRIPOS>ATOM
      1 C1         -3.7090   -4.0650    2.4920 c3        1 MOL     -0.182388
      2 C2         -2.6110   -3.8920    1.4200 c         1 MOL      0.392296
      3 O1         -2.1400   -2.7610    1.1310 o         1 MOL     -0.459424
      4 H1         -4.6890   -4.0040    2.0190 hc        1 MOL      0.049599
      5 H2         -3.5990   -5.0360    2.9740 hc        1 MOL      0.049599
      6 H3         -3.6160   -3.2760    3.2380 hc        1 MOL      0.049599
      7 N1         -2.2040   -4.9870    0.8600 n         1 MOL     -0.384414
      8 C3         -1.1400   -5.1440   -0.1500 c3        1 MOL     -0.220957
      9 C4          0.1990   -4.4540    0.2670 c         1 MOL      0.563266
     10 O2          0.9020   -3.8930   -0.6090 o         1 MOL     -0.542805
     11 C5         -1.7110   -4.8380   -1.5370 c3        1 MOL      0.005159
     12 C6         -3.1390   -5.3250   -1.8120 c         1 MOL      0.758550
     13 O3         -3.2320   -6.4740   -2.2010 o         1 MOL     -0.740821
     14 O4         -4.0990   -4.5360   -1.6690 o         1 MOL     -0.740821
     15 H4         -2.6900   -5.8220    1.1420 hn        1 MOL      0.300957
     16 H5         -0.9430   -6.2130   -0.0930 h1        1 MOL      0.138170
     17 H6         -1.0390   -5.1620   -2.3350 hc        1 MOL      0.031914
     18 H7         -1.7110   -3.7730   -1.7730 hc        1 MOL      0.031914
     19 N2          0.5630   -4.5750    1.5080 n         1 MOL     -0.334174
     20 C7          1.8180   -3.9880    2.0200 c3        1 MOL     -0.094537
     21 C8          2.8780   -5.1060    2.1590 c         1 MOL      0.483805
     22 O5          2.5190   -6.2350    2.3520 o         1 MOL     -0.567531
     23 C9          1.5900   -3.2090    3.3250 c3        1 MOL      0.278049
     24 C10         0.9080   -4.0630    4.3910 c3        1 MOL      0.217613
     25 C11         0.9330   -1.8200    3.1090 c3        1 MOL     -0.246635
     26 C12         0.8990   -3.4690    5.7840 c3        1 MOL     -0.190695
     27 H8         -0.0550   -5.1400    2.0600 hn        1 MOL      0.237745
     28 H9          2.1950   -3.3170    1.2510 h1        1 MOL      0.054583
     29 H10         2.5930   -3.0570    3.7350 hc        1 MOL      0.016101
     30 H11         1.5750   -4.9210    4.4470 hc        1 MOL     -0.052186
     31 H12        -0.0880   -4.4740    4.1990 hc        1 MOL     -0.052186
     32 H13        -0.1390   -1.9150    2.9610 hc        1 MOL      0.048944
     33 H14         1.1290   -1.2520    4.0200 hc        1 MOL      0.048944
     34 H15         1.3060   -1.3470    2.2020 hc        1 MOL      0.048944
     35 H16         1.8940   -3.3960    6.2230 hc        1 MOL      0.033163
     36 H17         0.4390   -2.4830    5.8630 hc        1 MOL      0.033163
     37 H18         0.2770   -4.0970    6.4180 hc        1 MOL      0.033163
     38 N3          4.1860   -4.8410    2.1450 n         1 MOL     -0.272905
     39 C13         4.8070   -3.5670    1.9910 c3        1 MOL     -0.150626
     40 C14         5.1330   -3.1340    0.5290 c         1 MOL      0.662936
     41 O6          5.1350   -1.9460    0.1750 o         1 MOL     -0.539347
     42 C15         6.1320   -3.4600    2.7610 c3        1 MOL     -0.203304
     43 C16         6.0320   -4.0720    4.1860 c         1 MOL      0.754384
     44 O7          5.7930   -3.3300    5.1360 o         1 MOL     -0.723175
     45 O8          6.2840   -5.3180    4.3800 o         1 MOL     -0.723175
     46 H19         4.7840   -5.6420    2.2760 hn        1 MOL      0.235308
     47 H20         4.1410   -2.7570    2.3100 h1        1 MOL      0.086348
     48 H21         6.4780   -2.4200    2.8070 hc        1 MOL      0.037302
     49 H22         6.8150   -4.0740    2.1790 hc        1 MOL      0.037302
     50 N4          5.1820   -4.1720   -0.3500 n         1 MOL     -0.378784
     51 C17         5.2600   -3.9040   -1.7980 c3        1 MOL     -0.327873
     52 C18         6.4970   -3.0800   -2.1090 c         1 MOL      0.562847
     53 O9          7.6610   -3.5410   -2.0190 o         1 MOL     -0.575093
     54 H23         5.0440   -5.1420   -0.1200 hn        1 MOL      0.308055
     55 H24         4.4180   -3.3710   -2.2420 h1        1 MOL      0.145384
     56 H25         5.3460   -4.8650   -2.3110 h1        1 MOL      0.145384
     57 N5          6.2930   -1.8930   -2.6780 n         1 MOL     -0.421926
     58 C19         7.3460   -0.9170   -3.1530 c3        1 MOL      0.072335
     59 C20         7.9670   -0.0060   -2.0250 c         1 MOL      0.259271
     60 O10         8.8840    0.7990   -2.2270 o         1 MOL     -0.488639
     61 C21         6.9090   -0.0390   -4.3510 c3        1 MOL     -0.386952
     62 C22         5.6860    0.8670   -4.0420 c         1 MOL      0.769480
     63 O11         5.7730    1.7760   -3.1540 o         1 MOL     -0.697540
     64 O12         4.6380    0.8820   -4.6910 o         1 MOL     -0.697540
     65 H26         5.3170   -1.6420   -2.7170 hn        1 MOL      0.284854
     66 H27         8.1790   -1.4480   -3.6170 h1        1 MOL      0.128169
     67 H28         6.7770   -0.7090   -5.1910 hc        1 MOL      0.100932
     68 H29         7.6590    0.6920   -4.6490 hc        1 MOL      0.100932
     69 N6          7.4630   -0.1260   -0.7570 n         1 MOL      0.000492
     70 C23         7.9370    0.6710    0.4380 c3        1 MOL     -0.389139
     71 C24         7.6570    2.1770    0.5370 c         1 MOL      0.690046
     72 O13         8.0160    2.7530    1.5880 o         1 MOL     -0.587073
     73 H30         6.8050   -0.8890   -0.6940 hn        1 MOL      0.148684
     74 H31         9.0210    0.7040    0.4750 h1        1 MOL      0.151092
     75 H32         7.4510    0.1760    1.2850 h1        1 MOL      0.151092
     76 N7          7.0440    2.8170   -0.5080 n         1 MOL     -0.395850
     77 C25         6.4530    4.1730   -0.4710 c3        1 MOL      0.146834
     78 C26         5.3960    4.4210    0.6610 c         1 MOL      0.303176
     79 O14         4.9980    5.5760    0.8470 o         1 MOL     -0.500695
     80 C27         7.4990    5.2790   -0.6010 c3        1 MOL      0.141414
     81 C28         8.1860    5.0380   -2.0210 c3        1 MOL     -0.149660
     82 C29         7.3540    5.4570   -3.2250 c         1 MOL      0.629401
     83 N8          6.6190    4.6080   -3.8570 n         1 MOL     -0.765889
     84 O15         7.2030    6.6000   -3.5300 o         1 MOL     -0.611960
     85 H33         6.8360    2.2910   -1.3450 hn        1 MOL      0.130240
     86 H34         5.7860    4.2400   -1.3370 h1        1 MOL      0.088336
     87 H35         8.1880    5.1200    0.2310 hc        1 MOL     -0.020276
     88 H36         7.0570    6.2650   -0.5010 hc        1 MOL     -0.020276
     89 H37         8.6710    4.0760   -2.2060 hc        1 MOL      0.025424
     90 H38         9.0440    5.7140   -2.0190 hc        1 MOL      0.025424
     91 H39         6.4120    3.7050   -3.4400 hn        1 MOL      0.366474
     92 H40         6.1270    4.8950   -4.6860 hn        1 MOL      0.366474
     93 N9          4.8680    3.4630    1.4300 n         1 MOL     -0.224087
     94 C30         3.8400    3.6640    2.5020 c3        1 MOL     -0.024761
     95 C31         2.4160    3.4940    1.9980 c         1 MOL      0.543204
     96 O16         1.5400    3.9490    2.6960 o         1 MOL     -0.575190
     97 C32         4.0070    2.7300    3.7460 c3        1 MOL      0.234637
     98 C33         4.4820    1.2570    3.4780 c3        1 MOL     -0.257934
     99 C34         4.9370    3.5130    4.6810 c3        1 MOL     -0.257934
    100 H41         5.2190    2.5170    1.3320 hn        1 MOL      0.206726
    101 H42         3.8700    4.7260    2.7810 h1        1 MOL      0.088213
    102 H43         3.0660    2.6010    4.2890 hc        1 MOL      0.019379
    103 H44         4.6650    0.8040    4.4570 hc        1 MOL      0.055904
    104 H45         3.7220    0.6330    3.0080 hc        1 MOL      0.055904
    105 H46         5.4020    1.3510    2.9170 hc        1 MOL      0.055904
    106 H47         4.4400    4.4720    4.8850 hc        1 MOL      0.055904
    107 H48         4.9480    3.0120    5.6510 hc        1 MOL      0.055904
    108 H49         5.9490    3.6780    4.3180 hc        1 MOL      0.055904
    109 N10         2.2150    2.5300    1.1430 n         1 MOL     -0.435769
    110 C35         0.9070    2.0900    0.6790 c3        1 MOL      0.078543
    111 C36         0.1490    3.2420    0.0090 c         1 MOL      0.612565
    112 O17         0.6600    4.2730   -0.3380 o         1 MOL     -0.524502
    113 C37         1.0600    0.8380   -0.1780 c3        1 MOL     -0.162782
    114 C38        -0.1560   -0.0540   -0.0410 c         1 MOL      0.585646
    115 N11        -0.2150   -1.2880   -0.4480 n         1 MOL     -0.242339
    116 O18        -1.1910    0.3290    0.4510 o         1 MOL     -0.548672
    117 H50         3.0420    2.1530    0.6980 hn        1 MOL      0.216936
    118 H51         0.3810    1.7940    1.5810 h1        1 MOL      0.056118
    119 H52         1.9840    0.3050    0.0460 hc        1 MOL      0.068485
    120 H53         1.2090    1.0740   -1.2290 hc        1 MOL      0.068485
    121 H54         0.5670   -1.6790   -0.9370 hn        1 MOL      0.161607
    122 H55        -0.9580   -1.8290   -0.0320 hn        1 MOL      0.161607
    123 N12        -1.1570    2.9810   -0.1270 n         1 MOL     -0.496326
    124 C39        -2.1820    3.8340   -0.6770 c3        1 MOL      0.234165
    125 C40        -3.6280    3.5450   -0.1140 c         1 MOL      0.510617
    126 O19        -3.9500    2.3910    0.2900 o         1 MOL     -0.440812
    127 C41        -2.1860    3.5930   -2.1660 c3        1 MOL     -0.263228
    128 C42        -2.2600    2.1250   -2.5980 ca        1 MOL      0.078076
    129 C43        -1.0840    1.4330   -3.0220 ca        1 MOL     -0.130148
    130 C44        -3.4540    1.4930   -2.5270 ca        1 MOL     -0.130148
    131 C45        -1.1320    0.0610   -3.2740 ca        1 MOL     -0.281338
    132 C46        -3.5700    0.0990   -2.9430 ca        1 MOL     -0.281338
    133 C47        -2.3930   -0.6090   -3.2750 ca        1 MOL      0.273435
    134 O20        -2.5300   -1.9240   -3.4060 oh        1 MOL     -0.486902
    135 H56        -1.5460    2.1030    0.1940 hn        1 MOL      0.188478
    136 H57        -1.9980    4.8880   -0.4560 h1        1 MOL      0.047505
    137 H58        -1.2870    4.0690   -2.5650 hc        1 MOL      0.076210
    138 H59        -3.1140    4.0790   -2.4690 hc        1 MOL      0.076210
    139 H60        -0.1880    2.0190   -3.0870 ha        1 MOL      0.149206
    140 H61        -4.3380    2.0310   -2.2170 ha        1 MOL      0.149206
    141 H62        -0.3220   -0.4940   -3.6980 ha        1 MOL      0.135359
    142 H63        -4.4510   -0.5070   -2.8250 ha        1 MOL      0.135359
    143 H64        -1.6420   -2.2720   -3.5310 ho        1 MOL      0.363899
    144 N13        -4.4980    4.5570   -0.0770 n         1 MOL     -0.626866
    145 C48        -5.8700    4.5730    0.4490 c3        1 MOL      0.367793
    146 C49        -6.8940    3.9970   -0.5700 c         1 MOL      0.545640
    147 O21        -7.1640    4.6650   -1.6040 o         1 MOL     -0.561243
    148 C50        -6.2640    5.9800    0.8740 c3        1 MOL     -0.009288
    149 C51        -7.5250    6.0270    1.7600 c3        1 MOL     -0.091267
    150 C52        -8.0970    7.4420    1.9560 c         1 MOL      0.630669
    151 O22        -7.6510    8.0780    2.9470 o         1 MOL     -0.719505
    152 O23        -9.0020    7.8470    1.1420 o         1 MOL     -0.719505
    153 H65        -4.3380    5.4060   -0.6100 hn        1 MOL      0.278460
    154 H66        -5.9120    3.9140    1.3120 h1        1 MOL     -0.009507
    155 H67        -6.5000    6.6280    0.0360 hc        1 MOL      0.003808
    156 H68        -5.4400    6.3680    1.4750 hc        1 MOL      0.003808
    157 H69        -7.2480    5.4810    2.6620 hc        1 MOL     -0.002105
    158 H70        -8.2710    5.4910    1.1720 hc        1 MOL     -0.002105
    159 N14        -7.5780    2.8160   -0.3210 n         1 MOL     -0.539857
    160 C53        -7.3080    1.7590    0.7100 c3        1 MOL     -0.068869
    161 C54        -8.1810    1.8870    1.9110 c         1 MOL      0.536715
    162 O24        -9.3660    2.2280    1.8350 o         1 MOL     -0.510205
    163 C55        -7.3260    0.3590    0.0870 c3        1 MOL      0.117840
    164 C56        -8.6460   -0.3040   -0.1990 c3        1 MOL     -0.424977
    165 C57        -8.4090   -1.6540   -0.8730 c         1 MOL      0.910276
    166 O25        -7.9340   -1.8230   -2.0210 o         1 MOL     -0.847034
    167 O26        -8.5950   -2.7020   -0.2440 o         1 MOL     -0.847034
    168 H71        -8.2700    2.5360   -0.9930 hn        1 MOL      0.326926
    169 H72        -6.2990    1.9690    1.0560 h1        1 MOL     -0.035107
    170 H73        -6.8370   -0.3850    0.7310 hc        1 MOL      0.057475
    171 H74        -6.7200    0.3660   -0.8160 hc        1 MOL      0.057475
    172 H75        -9.1490    0.2990   -0.9450 hc        1 MOL      0.111426
    173 H76        -9.2900   -0.3580    0.6740 hc        1 MOL      0.111426
    174 N15        -7.5150    1.5590    3.0400 n         1 MOL     -0.270823
    175 C58        -7.9450    1.5040    4.4460 c3        1 MOL     -0.342103
    176 H77        -7.1400    1.0920    5.0560 h1        1 MOL      0.134436
    177 H78        -8.1840    2.5100    4.7930 h1        1 MOL      0.134436
    178 H79        -8.8270    0.8700    4.5330 h1        1 MOL      0.134436
    179 H80        -6.6640    1.0590    2.8120 hn        1 MOL      0.265855
    180 Ca1        -6.6970   -4.1030   -1.6080 Ca        1 MOL      1.749539
    181 O27        -5.9850   -6.7650   -2.1010 oh        1 MOL     -0.899322
    182 H81        -5.0660   -7.0120   -1.9850 ho        1 MOL      0.441421
    183 H82        -6.3390   -7.4130   -2.7050 ho        1 MOL      0.441421
    184 O28        -5.1680   -2.1380   -0.6370 oh        1 MOL     -0.899322
    185 H83        -4.6530   -1.5250   -0.1230 ho        1 MOL      0.441421
    186 H84        -4.5260   -2.7680   -0.9680 ho        1 MOL      0.441421
    187 O29        -8.4450   -4.5520   -3.7170 oh        1 MOL     -0.899322
    188 H85        -8.9380   -3.7670   -3.9670 ho        1 MOL      0.441421
    189 H86        -8.8320   -5.2490   -4.2440 ho        1 MOL      0.441421
    190 O30        -5.6890   -3.6390   -3.9180 oh        1 MOL     -0.899322
    191 H87        -5.9920   -3.5440   -4.8180 ho        1 MOL      0.441421
    192 H88        -4.9170   -3.0760   -3.8670 ho        1 MOL      0.441421
@<TRIPOS>BOND
     1    1    2 1   
     2    1    4 1   
     3    1    5 1   
     4    1    6 1   
     5    2    3 2   
     6    2    7 1   
     7    7    8 1   
     8    7   15 1   
     9    8    9 1   
    10    8   11 1   
    11    8   16 1   
    12    9   10 2   
    13    9   19 1   
    14   11   12 1   
    15   11   17 1   
    16   11   18 1   
    17   12   13 1   
    18   12   14 1   
    19   19   20 1   
    20   19   27 1   
    21   20   21 1   
    22   20   23 1   
    23   20   28 1   
    24   21   22 2   
    25   21   38 1   
    26   23   24 1   
    27   23   25 1   
    28   23   29 1   
    29   24   26 1   
    30   24   30 1   
    31   24   31 1   
    32   25   32 1   
    33   25   33 1   
    34   25   34 1   
    35   26   35 1   
    36   26   36 1   
    37   26   37 1   
    38   38   39 1   
    39   38   46 1   
    40   39   40 1   
    41   39   42 1   
    42   39   47 1   
    43   40   41 2   
    44   40   50 1   
    45   42   43 1   
    46   42   48 1   
    47   42   49 1   
    48   43   44 1   
    49   43   45 1   
    50   50   51 1   
    51   50   54 1   
    52   51   52 1   
    53   51   55 1   
    54   51   56 1   
    55   52   53 2   
    56   52   57 1   
    57   57   58 1   
    58   57   65 1   
    59   58   59 1   
    60   58   61 1   
    61   58   66 1   
    62   59   60 2   
    63   59   69 1   
    64   61   62 1   
    65   61   67 1   
    66   61   68 1   
    67   62   63 1   
    68   62   64 1   
    69   69   70 1   
    70   69   73 1   
    71   70   71 1   
    72   70   74 1   
    73   70   75 1   
    74   71   72 2   
    75   71   76 1   
    76   76   77 1   
    77   76   85 1   
    78   77   78 1   
    79   77   80 1   
    80   77   86 1   
    81   78   79 2   
    82   78   93 1   
    83   80   81 1   
    84   80   87 1   
    85   80   88 1   
    86   81   82 1   
    87   81   89 1   
    88   81   90 1   
    89   82   83 1   
    90   82   84 2   
    91   83   91 1   
    92   83   92 1   
    93   93   94 1   
    94   93  100 1   
    95   94   95 1   
    96   94   97 1   
    97   94  101 1   
    98   95   96 2   
    99   95  109 1   
   100   97   98 1   
   101   97   99 1   
   102   97  102 1   
   103   98  103 1   
   104   98  104 1   
   105   98  105 1   
   106   99  106 1   
   107   99  107 1   
   108   99  108 1   
   109  109  110 1   
   110  109  117 1   
   111  110  111 1   
   112  110  113 1   
   113  110  118 1   
   114  111  112 2   
   115  111  123 1   
   116  113  114 1   
   117  113  119 1   
   118  113  120 1   
   119  114  115 1   
   120  114  116 2   
   121  115  121 1   
   122  115  122 1   
   123  123  124 1   
   124  123  135 1   
   125  124  125 1   
   126  124  127 1   
   127  124  136 1   
   128  125  126 2   
   129  125  144 1   
   130  127  128 1   
   131  127  137 1   
   132  127  138 1   
   133  128  129 ar  
   134  128  130 ar  
   135  129  131 ar  
   136  129  139 1   
   137  130  132 ar  
   138  130  140 1   
   139  131  133 ar  
   140  131  141 1   
   141  132  133 ar  
   142  132  142 1   
   143  133  134 1   
   144  134  143 1   
   145  144  145 1   
   146  144  153 1   
   147  145  146 1   
   148  145  148 1   
   149  145  154 1   
   150  146  147 2   
   151  146  159 1   
   152  148  149 1   
   153  148  155 1   
   154  148  156 1   
   155  149  150 1   
   156  149  157 1   
   157  149  158 1   
   158  150  151 1   
   159  150  152 1   
   160  159  160 1   
   161  159  168 1   
   162  160  161 1   
   163  160  163 1   
   164  160  169 1   
   165  161  162 2   
   166  161  174 1   
   167  163  164 1   
   168  163  170 1   
   169  163  171 1   
   170  164  165 1   
   171  164  172 1   
   172  164  173 1   
   173  165  166 1   
   174  165  167 1   
   175  174  175 1   
   176  174  179 1   
   177  175  176 1   
   178  175  177 1   
   179  175  178 1   
   180  181  182 1   
   181  181  183 1   
   182  184  185 1   
   183  184  186 1   
   184  187  188 1   
   185  187  189 1   
   186  190  191 1   
   187  190  192 1   
@<TRIPOS>SUBSTRUCTURE
     1 MOL         1 TEMP              0 ****  ****    0 ROOT
