@<TRIPOS>MOLECULE
MOL
  195   189     1     0     0
SMALL
resp


@<TRIPOS>ATOM
      1 C1         11.4610    6.2860   -0.7850 c3        1 MOL     -0.424381
      2 C2         11.1300    4.8770   -0.1830 c         1 MOL      0.682844
      3 O1         11.8770    3.9130   -0.2850 o         1 MOL     -0.568926
      4 H1         12.3900    6.2300   -1.3510 hc        1 MOL      0.114407
      5 H2         10.6520    6.5990   -1.4450 hc        1 MOL      0.114407
      6 H3         11.5720    7.0100    0.0230 hc        1 MOL      0.114407
      7 N1         10.0360    4.8720    0.6100 n         1 MOL     -0.436141
      8 C3          9.6500    3.7410    1.4210 c3        1 MOL     -0.131925
      9 C4          9.0770    2.5510    0.5810 c         1 MOL      0.641096
     10 O2          8.2340    2.7740   -0.3230 o         1 MOL     -0.633058
     11 C5          8.7530    4.1500    2.6530 c3        1 MOL     -0.083645
     12 C6          7.4260    4.8730    2.3340 c         1 MOL      0.859110
     13 O3          7.1930    5.2190    1.2020 o         1 MOL     -0.776402
     14 O4          6.5790    5.0470    3.2830 o         1 MOL     -0.776402
     15 H4          9.3940    5.6560    0.6360 hn        1 MOL      0.261175
     16 H5         10.5680    3.3200    1.8090 h1        1 MOL      0.101751
     17 H6          9.3540    4.7970    3.2980 hc        1 MOL      0.047010
     18 H7          8.4880    3.2600    3.2260 hc        1 MOL      0.047010
     19 N2          9.3960    1.2890    0.9720 n         1 MOL     -0.614310
     20 C7          8.8240    0.0020    0.4570 c3        1 MOL      0.433630
     21 C8          7.3670   -0.1180    0.9620 c         1 MOL      0.328069
     22 O5          7.0930    0.0560    2.1570 o         1 MOL     -0.520618
     23 C9          9.6080   -1.2730    0.7520 c3        1 MOL     -0.323167
     24 C10         9.0630   -2.5600    0.1270 c3        1 MOL      0.121994
     25 C11        10.1510   -3.6510   -0.0460 c3        1 MOL     -0.025090
     26 C12         9.5480   -4.9590   -0.4980 c3        1 MOL      0.048524
     27 N3         10.5800   -5.9190   -0.7740 n4        1 MOL     -0.145933
     28 H8         10.0180    1.1240    1.7520 hn        1 MOL      0.320775
     29 H9          8.7640   -0.0650   -0.6310 h1        1 MOL     -0.004620
     30 H10         9.8110   -1.3290    1.8220 hc        1 MOL      0.084544
     31 H11        10.5720   -1.0930    0.2710 hc        1 MOL      0.084544
     32 H12         8.7040   -2.3420   -0.8780 hc        1 MOL      0.038397
     33 H13         8.2750   -3.0290    0.7240 hc        1 MOL      0.038397
     34 H14        10.6810   -3.8850    0.8740 hc        1 MOL      0.011116
     35 H15        10.8680   -3.2560   -0.7660 hc        1 MOL      0.011116
     36 H16         8.9740   -4.8420   -1.4190 hx        1 MOL      0.065847
     37 H17         8.9060   -5.2870    0.3180 hx        1 MOL      0.065847
     38 H18        11.2170   -5.6340   -1.5000 hn        1 MOL      0.202440
     39 H19        11.1040   -6.2080    0.0370 hn        1 MOL      0.202440
     40 H20        10.1570   -6.7910   -1.0700 hn        1 MOL      0.202440
     41 N4          6.4960   -0.6360    0.1530 n         1 MOL     -0.403500
     42 C13         5.1100   -0.9480    0.4710 c3        1 MOL      0.162508
     43 C14         4.8960   -2.4820    0.4900 c         1 MOL      0.567312
     44 O6          5.5870   -3.1370   -0.2510 o         1 MOL     -0.651858
     45 C15         4.0570   -0.3310   -0.4800 c3        1 MOL      0.037373
     46 C16         4.4050    1.0960   -0.8650 c         1 MOL      0.507652
     47 O7          3.6470    2.0140   -0.4920 o         1 MOL     -0.689119
     48 O8          5.4190    1.4060   -1.4250 o         1 MOL     -0.689119
     49 H21         6.8430   -0.9160   -0.7540 hn        1 MOL      0.245172
     50 H22         4.8420   -0.5640    1.4540 h1        1 MOL      0.075618
     51 H23         3.0630   -0.3180   -0.0360 hc        1 MOL      0.019983
     52 H24         4.1020   -0.8580   -1.4320 hc        1 MOL      0.019983
     53 N5          4.0100   -3.0330    1.3070 n         1 MOL     -0.431190
     54 C17         2.8910   -2.5070    2.0360 c3        1 MOL     -0.140836
     55 C18         1.9880   -3.5350    2.7100 c         1 MOL      0.597486
     56 O9          2.3820   -4.6250    3.1400 o         1 MOL     -0.545606
     57 H25         4.0140   -4.0510    1.3230 hn        1 MOL      0.274258
     58 H26         2.2320   -1.9320    1.3890 h1        1 MOL      0.095775
     59 H27         3.2790   -1.7610    2.7300 h1        1 MOL      0.095775
     60 N6          0.6940   -3.2090    2.7700 n         1 MOL     -0.498187
     61 C19        -0.3540   -4.0200    3.3410 c3        1 MOL      0.198096
     62 C20        -0.8360   -4.9970    2.2390 c         1 MOL      0.280976
     63 O10        -1.9980   -4.9550    1.8720 o         1 MOL     -0.360503
     64 C21        -1.4990   -3.1660    3.8690 c3        1 MOL     -0.171479
     65 C22        -2.5460   -3.9500    4.6930 c         1 MOL      0.656458
     66 O11        -3.4550   -3.2250    5.1710 o         1 MOL     -0.637414
     67 O12        -2.4860   -5.1790    4.9050 o         1 MOL     -0.637414
     68 H28         0.3920   -2.2700    2.5500 hn        1 MOL      0.303760
     69 H29         0.0140   -4.6440    4.1540 h1        1 MOL      0.050724
     70 H30        -2.0550   -2.7070    3.0590 hc        1 MOL      0.038680
     71 H31        -1.0870   -2.3390    4.4360 hc        1 MOL      0.038680
     72 N7          0.1100   -5.7640    1.6270 n         1 MOL     -0.257698
     73 C23        -0.2840   -6.5200    0.3900 c3        1 MOL     -0.146334
     74 C24        -0.1560   -5.6680   -0.8500 c         1 MOL      0.519114
     75 O13        -0.6590   -5.9390   -1.9090 o         1 MOL     -0.558424
     76 H32         0.9810   -5.8600    2.1110 hn        1 MOL      0.235711
     77 H33        -1.2370   -7.0390    0.4470 h1        1 MOL      0.108332
     78 H34         0.4350   -7.3240    0.2480 h1        1 MOL      0.108332
     79 N8          0.5960   -4.5940   -0.7240 n         1 MOL     -0.204428
     80 C25         1.0410   -3.6240   -1.7970 c3        1 MOL      0.103113
     81 C26         0.7100   -2.1880   -1.3890 c         1 MOL      0.116336
     82 O14         0.6030   -1.8280   -0.2020 o         1 MOL     -0.424536
     83 C27         2.5290   -3.6880   -2.2020 c3        1 MOL      0.195801
     84 C28         2.7680   -5.1340   -2.7300 c3        1 MOL     -0.356554
     85 O15         2.6650   -2.8340   -3.3230 oh        1 MOL     -0.577021
     86 H35         1.0940   -4.4960    0.1440 hn        1 MOL      0.141929
     87 H36         0.3780   -3.8680   -2.6260 h1        1 MOL      0.120484
     88 H37         3.2200   -3.4670   -1.3850 h1        1 MOL      0.085987
     89 H38         3.5410   -2.4720   -3.4470 ho        1 MOL      0.407481
     90 H39         3.8030   -5.2970   -3.0260 hc        1 MOL      0.089294
     91 H40         2.4250   -5.8440   -1.9720 hc        1 MOL      0.089294
     92 H41         2.1620   -5.2560   -3.6210 hc        1 MOL      0.089294
     93 N9          0.4010   -1.3710   -2.3630 n         1 MOL     -0.122707
     94 C29        -0.1870   -0.0510   -2.2200 c3        1 MOL     -0.207511
     95 C30        -1.5300   -0.0660   -1.5470 c         1 MOL      0.566224
     96 O16        -1.8900    0.9040   -0.8850 o         1 MOL     -0.558637
     97 C31        -0.4110    0.6200   -3.5930 c3        1 MOL      0.180093
     98 C32         0.7420    0.5150   -4.5390 c3        1 MOL      0.029764
     99 C33        -0.8060    2.0940   -3.4130 c3        1 MOL     -0.163873
    100 C34         2.0290    1.1740   -4.0420 c3        1 MOL     -0.190612
    101 H42         0.6950   -1.6610   -3.2760 hn        1 MOL      0.176260
    102 H43         0.5540    0.4650   -1.6180 h1        1 MOL      0.134641
    103 H44        -1.2280    0.0910   -4.0830 hc        1 MOL     -0.026947
    104 H45         0.4250    0.9080   -5.5010 hc        1 MOL      0.008090
    105 H46         1.0730   -0.4910   -4.7730 hc        1 MOL      0.008090
    106 H47        -1.8930    2.2050   -3.3480 hc        1 MOL      0.046439
    107 H48        -0.3040    2.4790   -2.5260 hc        1 MOL      0.046439
    108 H49        -0.5660    2.7130   -4.2770 hc        1 MOL      0.046439
    109 H50         1.8440    2.2430   -3.9150 hc        1 MOL      0.040685
    110 H51         2.3020    0.6720   -3.1130 hc        1 MOL      0.040685
    111 H52         2.7120    0.9230   -4.8470 hc        1 MOL      0.040685
    112 N10        -2.2730   -1.1040   -1.6700 n         1 MOL     -0.365443
    113 C35        -3.5240   -1.4110   -0.8700 c3        1 MOL     -0.043284
    114 C36        -4.6780   -1.7810   -1.7780 c         1 MOL      0.653634
    115 O17        -4.5110   -2.3300   -2.8440 o         1 MOL     -0.515684
    116 C37        -3.2370   -2.5660    0.1060 c3        1 MOL      0.251003
    117 C38        -4.4560   -2.8960    1.0370 c3        1 MOL     -0.322852
    118 O18        -2.6390   -3.6900   -0.4630 oh        1 MOL     -0.522817
    119 H53        -1.9850   -1.8520   -2.2750 hn        1 MOL      0.247610
    120 H54        -3.8050   -0.5340   -0.3000 h1        1 MOL      0.098011
    121 H55        -2.5660   -2.1090    0.8190 h1        1 MOL      0.060876
    122 H56        -2.4910   -4.3460    0.2180 ho        1 MOL      0.320707
    123 H57        -5.0240   -2.0730    1.4450 hc        1 MOL      0.084737
    124 H58        -5.2300   -3.4170    0.4710 hc        1 MOL      0.084737
    125 H59        -4.0920   -3.6120    1.7840 hc        1 MOL      0.084737
    126 N11        -5.9440   -1.4710   -1.3420 n         1 MOL     -0.716946
    127 C39        -7.1770   -2.0290   -1.9460 c3        1 MOL      0.138681
    128 C40        -8.2900   -0.9840   -2.0240 c         1 MOL      0.644013
    129 O19        -8.8380   -0.8470   -3.0670 o         1 MOL     -0.563511
    130 C41        -7.5950   -3.3510   -1.1660 c3        1 MOL      0.384659
    131 C42        -8.8480   -4.0050   -1.7360 c3        1 MOL     -0.486789
    132 O20        -7.8940   -3.0180    0.1300 oh        1 MOL     -0.650771
    133 H60        -6.1510   -0.9670   -0.4960 hn        1 MOL      0.351085
    134 H61        -6.9610   -2.3580   -2.9620 h1        1 MOL      0.057716
    135 H62        -6.7800   -4.0770   -1.2420 h1        1 MOL      0.017452
    136 H63        -7.5750   -3.6900    0.7260 ho        1 MOL      0.414222
    137 H64        -9.1170   -4.8660   -1.1350 hc        1 MOL      0.115850
    138 H65        -9.6410   -3.2580   -1.7080 hc        1 MOL      0.115850
    139 H66        -8.5960   -4.1660   -2.7830 hc        1 MOL      0.115850
    140 N12        -8.5100   -0.2720   -0.9150 n         1 MOL     -0.468350
    141 C43        -9.4910    0.7740   -0.8240 c3        1 MOL     -0.001672
    142 C44        -9.0390    1.7370    0.3090 c         1 MOL      0.562451
    143 O21        -8.4850    1.3280    1.3120 o         1 MOL     -0.494618
    144 C45       -10.9370    0.1770   -0.5690 c3        1 MOL     -0.367330
    145 C46       -12.0360    1.2080   -0.3600 c3        1 MOL      0.093998
    146 C47       -13.3970    0.6050   -0.0030 c3        1 MOL     -0.053876
    147 C48       -13.4570    0.5300    1.5140 c3        1 MOL      0.063281
    148 N13       -14.2670   -0.6060    2.0460 n4        1 MOL     -0.370664
    149 H67        -7.8750   -0.3600   -0.1390 hn        1 MOL      0.259492
    150 H68        -9.4710    1.3450   -1.7550 h1        1 MOL      0.092553
    151 H69       -10.8010   -0.5160    0.2680 hc        1 MOL      0.136620
    152 H70       -11.2070   -0.3840   -1.4670 hc        1 MOL      0.136620
    153 H71       -12.1930    1.7560   -1.2820 hc        1 MOL      0.024827
    154 H72       -11.7740    1.9620    0.3710 hc        1 MOL      0.024827
    155 H73       -13.4680   -0.3650   -0.4940 hc        1 MOL      0.039568
    156 H74       -14.2330    1.2230   -0.3310 hc        1 MOL      0.039568
    157 H75       -13.7640    1.5220    1.8620 hx        1 MOL      0.082064
    158 H76       -12.4320    0.3600    1.8440 hx        1 MOL      0.082064
    159 H77       -15.2570   -0.5400    1.8660 hn        1 MOL      0.301645
    160 H78       -13.9700   -1.4830    1.6620 hn        1 MOL      0.301645
    161 H79       -14.1470   -0.7290    3.0380 hn        1 MOL      0.301645
    162 N14        -9.1850    3.0530    0.1540 n         1 MOL     -0.435484
    163 C49        -8.5400    4.0520    1.0240 c3        1 MOL      0.199543
    164 C50        -7.0380    3.9100    0.9360 c         1 MOL      0.322660
    165 O22        -6.3780    3.6930    1.9970 o         1 MOL     -0.522998
    166 C51        -9.0520    5.5130    0.7820 c3        1 MOL     -0.034723
    167 C52        -8.4420    6.6190    1.6360 c3        1 MOL     -0.127365
    168 C53        -9.0930    8.0410    1.1850 c         1 MOL      0.665957
    169 O23        -8.4310    9.0690    1.5330 o         1 MOL     -0.642757
    170 O24       -10.1480    8.1130    0.4720 o         1 MOL     -0.642757
    171 H80        -9.6520    3.3430   -0.6940 hn        1 MOL      0.232003
    172 H81        -8.7690    3.8380    2.0690 h1        1 MOL      0.036506
    173 H82       -10.1300    5.4900    0.9340 hc        1 MOL     -0.002351
    174 H83        -8.9600    5.7910   -0.2660 hc        1 MOL     -0.002351
    175 H84        -7.3500    6.6840    1.5580 hc        1 MOL      0.037510
    176 H85        -8.7590    6.5170    2.6790 hc        1 MOL      0.037510
    177 N15        -6.3190    4.0660   -0.1790 n         1 MOL     -0.253181
    178 C54        -6.6580    4.4890   -1.5610 c3        1 MOL     -0.192051
    179 H86        -5.7930    4.3430   -2.2080 h1        1 MOL      0.099888
    180 H87        -7.4920    3.8920   -1.9300 h1        1 MOL      0.099888
    181 H88        -6.9370    5.5430   -1.5610 h1        1 MOL      0.099888
    182 H89        -5.3820    3.7070   -0.0460 hn        1 MOL      0.272652
    183 Ca1         5.8030    3.9150   -0.6940 Ca        1 MOL      1.820402
    184 O25         5.6740    2.6040    1.7150 oh        1 MOL     -0.905788
    185 H90         6.1420    3.0270    2.4440 ho        1 MOL      0.443319
    186 H91         4.9910    2.0880    2.1330 ho        1 MOL      0.443319
    187 O26         4.2030    4.9840    1.2870 oh        1 MOL     -0.905788
    188 H92         4.7060    5.2590    2.0590 ho        1 MOL      0.443319
    189 H93         3.3210    5.2860    1.4500 ho        1 MOL      0.443319
    190 O27         7.1420    3.7140   -3.1780 oh        1 MOL     -0.905788
    191 H94         7.9750    4.1290   -3.3880 ho        1 MOL      0.443319
    192 H95         7.0850    2.9770   -3.7780 ho        1 MOL      0.443319
    193 O28         3.7510    4.2410   -2.3460 oh        1 MOL     -0.905788
    194 H96         3.4670    4.3010   -3.2570 ho        1 MOL      0.443319
    195 H97         3.1410    3.6100   -1.9460 ho        1 MOL      0.443319
@<TRIPOS>BOND
     1    1    2 1   
     2    1    4 1   
     3    1    5 1   
     4    1    6 1   
     5    2    3 2   
     6    2    7 1   
     7    7    8 1   
     8    7   15 1   
     9    8    9 1   
    10    8   11 1   
    11    8   16 1   
    12    9   10 2   
    13    9   19 1   
    14   11   12 1   
    15   11   17 1   
    16   11   18 1   
    17   12   13 1   
    18   12   14 1   
    19   19   20 1   
    20   19   28 1   
    21   20   21 1   
    22   20   23 1   
    23   20   29 1   
    24   21   22 2   
    25   21   41 1   
    26   23   24 1   
    27   23   30 1   
    28   23   31 1   
    29   24   25 1   
    30   24   32 1   
    31   24   33 1   
    32   25   26 1   
    33   25   34 1   
    34   25   35 1   
    35   26   27 1   
    36   26   36 1   
    37   26   37 1   
    38   27   38 1   
    39   27   39 1   
    40   27   40 1   
    41   41   42 1   
    42   41   49 1   
    43   42   43 1   
    44   42   45 1   
    45   42   50 1   
    46   43   44 2   
    47   43   53 1   
    48   45   46 1   
    49   45   51 1   
    50   45   52 1   
    51   46   47 1   
    52   46   48 1   
    53   53   54 1   
    54   53   57 1   
    55   54   55 1   
    56   54   58 1   
    57   54   59 1   
    58   55   56 2   
    59   55   60 1   
    60   60   61 1   
    61   60   68 1   
    62   61   62 1   
    63   61   64 1   
    64   61   69 1   
    65   62   63 2   
    66   62   72 1   
    67   64   65 1   
    68   64   70 1   
    69   64   71 1   
    70   65   66 1   
    71   65   67 1   
    72   72   73 1   
    73   72   76 1   
    74   73   74 1   
    75   73   77 1   
    76   73   78 1   
    77   74   75 2   
    78   74   79 1   
    79   79   80 1   
    80   79   86 1   
    81   80   81 1   
    82   80   83 1   
    83   80   87 1   
    84   81   82 2   
    85   81   93 1   
    86   83   84 1   
    87   83   85 1   
    88   83   88 1   
    89   84   90 1   
    90   84   91 1   
    91   84   92 1   
    92   85   89 1   
    93   93   94 1   
    94   93  101 1   
    95   94   95 1   
    96   94   97 1   
    97   94  102 1   
    98   95   96 2   
    99   95  112 1   
   100   97   98 1   
   101   97   99 1   
   102   97  103 1   
   103   98  100 1   
   104   98  104 1   
   105   98  105 1   
   106   99  106 1   
   107   99  107 1   
   108   99  108 1   
   109  100  109 1   
   110  100  110 1   
   111  100  111 1   
   112  112  113 1   
   113  112  119 1   
   114  113  114 1   
   115  113  116 1   
   116  113  120 1   
   117  114  115 2   
   118  114  126 1   
   119  116  117 1   
   120  116  118 1   
   121  116  121 1   
   122  117  123 1   
   123  117  124 1   
   124  117  125 1   
   125  118  122 1   
   126  126  127 1   
   127  126  133 1   
   128  127  128 1   
   129  127  130 1   
   130  127  134 1   
   131  128  129 2   
   132  128  140 1   
   133  130  131 1   
   134  130  132 1   
   135  130  135 1   
   136  131  137 1   
   137  131  138 1   
   138  131  139 1   
   139  132  136 1   
   140  140  141 1   
   141  140  149 1   
   142  141  142 1   
   143  141  144 1   
   144  141  150 1   
   145  142  143 2   
   146  142  162 1   
   147  144  145 1   
   148  144  151 1   
   149  144  152 1   
   150  145  146 1   
   151  145  153 1   
   152  145  154 1   
   153  146  147 1   
   154  146  155 1   
   155  146  156 1   
   156  147  148 1   
   157  147  157 1   
   158  147  158 1   
   159  148  159 1   
   160  148  160 1   
   161  148  161 1   
   162  162  163 1   
   163  162  171 1   
   164  163  164 1   
   165  163  166 1   
   166  163  172 1   
   167  164  165 2   
   168  164  177 1   
   169  166  167 1   
   170  166  173 1   
   171  166  174 1   
   172  167  168 1   
   173  167  175 1   
   174  167  176 1   
   175  168  169 1   
   176  168  170 1   
   177  177  178 1   
   178  177  182 1   
   179  178  179 1   
   180  178  180 1   
   181  178  181 1   
   182  184  185 1   
   183  184  186 1   
   184  187  188 1   
   185  187  189 1   
   186  190  191 1   
   187  190  192 1   
   188  193  194 1   
   189  193  195 1   
@<TRIPOS>SUBSTRUCTURE
     1 MOL         1 TEMP              0 ****  ****    0 ROOT
