@<TRIPOS>MOLECULE
MOL
  186   183     1     0     0
SMALL
resp


@<TRIPOS>ATOM
      1 C1         -6.4280   -4.9710   -2.6360 c3        1 MOL     -0.499452
      2 C2         -6.3680   -3.8000   -1.6790 c         1 MOL      0.812916
      3 O1         -5.3240   -3.4840   -1.1160 o         1 MOL     -0.535553
      4 H1         -7.4660   -5.2760   -2.7700 hc        1 MOL      0.120621
      5 H2         -6.0090   -4.6760   -3.5980 hc        1 MOL      0.120621
      6 H3         -5.8550   -5.8040   -2.2280 hc        1 MOL      0.120621
      7 N1         -7.5590   -3.1650   -1.4420 n         1 MOL     -0.690361
      8 C3         -7.7260   -1.7760   -0.7960 c3        1 MOL      0.456393
      9 C4         -6.4460   -0.8250   -1.0190 c         1 MOL      0.112597
     10 O2         -5.6260   -0.6700   -0.0100 o         1 MOL     -0.557637
     11 C5         -8.2080   -1.9180    0.6760 c3        1 MOL     -0.333798
     12 C6         -7.5590   -3.1440    1.4010 c         1 MOL      0.805630
     13 O3         -6.3610   -3.0660    1.7520 o         1 MOL     -0.739008
     14 O4         -8.2110   -4.1700    1.6800 o         1 MOL     -0.739008
     15 H4         -8.3290   -3.5750   -1.9420 hn        1 MOL      0.312574
     16 H5         -8.5480   -1.3080   -1.3470 h1        1 MOL     -0.028572
     17 H6         -9.2840   -2.0630    0.6690 hc        1 MOL      0.062268
     18 H7         -7.9700   -1.0020    1.2190 hc        1 MOL      0.062268
     19 N2         -6.2680   -0.4400   -2.2740 n         1 MOL     -0.273278
     20 C7         -5.4120    0.5930   -2.8430 c3        1 MOL      0.155250
     21 C8         -5.8220    1.9950   -2.3290 c         1 MOL      0.315348
     22 O5         -6.2540    2.8730   -3.0510 o         1 MOL     -0.536889
     23 C9         -3.9540    0.2710   -2.5780 c3        1 MOL      0.135139
     24 C10        -2.9100    1.4160   -2.9690 c3        1 MOL      0.044021
     25 C11        -3.5130   -1.0300   -3.2800 c3        1 MOL      0.064499
     26 C12        -3.0250    1.9300   -4.3990 c3        1 MOL     -0.134572
     27 H8         -6.8780   -0.9200   -2.9230 hn        1 MOL      0.222585
     28 H9         -5.5310    0.6850   -3.9170 h1        1 MOL      0.011240
     29 H10        -3.8050    0.0650   -1.5180 hc        1 MOL     -0.149459
     30 H11        -1.8890    1.2240   -2.6570 hc        1 MOL      0.044494
     31 H12        -3.1690    2.3120   -2.4080 hc        1 MOL      0.044494
     32 H13        -3.6680   -0.9170   -4.3530 hc        1 MOL     -0.043240
     33 H14        -2.4610   -1.2090   -3.0620 hc        1 MOL     -0.043240
     34 H15        -4.1700   -1.8560   -3.0420 hc        1 MOL     -0.043240
     35 H16        -2.2920    2.7220   -4.5320 hc        1 MOL      0.010714
     36 H17        -2.7020    1.0690   -4.9940 hc        1 MOL      0.010714
     37 H18        -4.0590    2.1830   -4.6280 hc        1 MOL      0.010714
     38 N3         -5.7250    2.2400   -1.0040 n         1 MOL     -0.209183
     39 C13        -6.3740    3.3450   -0.2300 c3        1 MOL      0.110916
     40 C14        -5.6020    4.6590   -0.2100 c         1 MOL      0.438697
     41 O6         -6.0910    5.7240   -0.4320 o         1 MOL     -0.532607
     42 C15        -6.8200    2.8780    1.1230 c3        1 MOL     -0.131608
     43 C16        -7.3670    3.9710    2.0240 c         1 MOL      0.728760
     44 O7         -6.5930    4.4700    2.8990 o         1 MOL     -0.736089
     45 O8         -8.5180    4.3150    1.8580 o         1 MOL     -0.736089
     46 H19        -5.3780    1.5050   -0.4110 hn        1 MOL      0.391341
     47 H20        -7.2940    3.6620   -0.7180 h1        1 MOL      0.031967
     48 H21        -5.9550    2.4570    1.6370 hc        1 MOL      0.018802
     49 H22        -7.6340    2.1840    0.9270 hc        1 MOL      0.018802
     50 N4         -4.3070    4.7200    0.1620 n         1 MOL     -0.367961
     51 C17        -3.4220    3.6400    0.5410 c3        1 MOL      0.027557
     52 C18        -2.4620    3.9740    1.6350 c         1 MOL      0.724990
     53 O9         -2.0000    5.1010    1.7820 o         1 MOL     -0.635617
     54 H23        -3.9630    5.6660    0.0500 hn        1 MOL      0.256026
     55 H24        -2.8110    3.5400   -0.3620 h1        1 MOL      0.004875
     56 H25        -3.8740    2.6780    0.7860 h1        1 MOL      0.004875
     57 N5         -1.8810    3.0780    2.4500 n         1 MOL     -0.596051
     58 C19        -2.2280    1.6520    2.5860 c3        1 MOL      0.402898
     59 C20        -2.1460    0.7770    1.2590 c         1 MOL      0.117438
     60 O10        -3.1560    0.3930    0.7390 o         1 MOL     -0.470283
     61 C21        -3.5700    1.4930    3.2560 c3        1 MOL     -0.463779
     62 C22        -3.8430    0.0430    3.6420 c         1 MOL      1.005103
     63 O11        -3.3690   -0.4510    4.6630 o         1 MOL     -0.789929
     64 O12        -4.6300   -0.6510    2.9640 o         1 MOL     -0.789929
     65 H26        -1.3980    3.4420    3.2590 hn        1 MOL      0.308052
     66 H27        -1.5030    1.2480    3.3010 h1        1 MOL      0.001019
     67 H28        -4.3040    1.9000    2.5510 hc        1 MOL      0.089098
     68 H29        -3.4900    2.0640    4.1810 hc        1 MOL      0.089098
     69 N6         -1.0640    0.8420    0.4600 n         1 MOL      0.003464
     70 C23         0.2460    1.4160    0.8640 c3        1 MOL     -0.194377
     71 C24         0.5850    2.7650    0.2420 c         1 MOL      0.492167
     72 O13        -0.0840    3.1690   -0.6920 o         1 MOL     -0.524675
     73 H30        -1.2190    0.7540   -0.5370 hn        1 MOL      0.160868
     74 H31         0.9960    0.6840    0.5560 h1        1 MOL      0.068150
     75 H32         0.2630    1.4860    1.9610 h1        1 MOL      0.068150
     76 N7          1.7100    3.3450    0.5460 n         1 MOL     -0.509940
     77 C25         2.2160    4.5440   -0.1040 c3        1 MOL      0.097450
     78 C26         2.8460    4.3110   -1.4510 c         1 MOL      0.213848
     79 O14         3.3530    5.1760   -2.1330 o         1 MOL     -0.477348
     80 C27         3.2470    5.2150    0.8810 c3        1 MOL      0.088260
     81 C28         2.5770    5.7880    2.1480 c3        1 MOL     -0.148832
     82 C29         3.6130    6.1500    3.2510 c         1 MOL      0.647063
     83 N8          3.1490    6.7920    4.3150 n         1 MOL     -0.820949
     84 O15         4.8120    5.7870    3.2540 o         1 MOL     -0.550668
     85 H33         2.1700    2.9330    1.3470 hn        1 MOL      0.331867
     86 H34         1.3920    5.2360   -0.2260 h1        1 MOL      0.138752
     87 H35         3.7000    6.0810    0.4020 hc        1 MOL     -0.002142
     88 H36         3.9530    4.4460    1.1970 hc        1 MOL     -0.002142
     89 H37         1.9470    5.0340    2.6230 hc        1 MOL      0.051025
     90 H38         1.9820    6.6530    1.8560 hc        1 MOL      0.051025
     91 H39         2.1900    7.0810    4.3760 hn        1 MOL      0.369351
     92 H40         3.7840    6.9410    5.0940 hn        1 MOL      0.369351
     93 N9          2.8820    3.0560   -1.9460 n         1 MOL      0.123238
     94 C30         3.3260    2.6140   -3.2180 c3        1 MOL     -0.261056
     95 C31         4.6040    1.7850   -3.2120 c         1 MOL      0.699207
     96 O16         5.3010    1.6900   -4.2060 o         1 MOL     -0.575682
     97 C32         2.1440    2.0090   -4.0660 c3        1 MOL      0.287014
     98 C33         0.9210    2.9240   -4.1410 c3        1 MOL     -0.227618
     99 C34         1.6720    0.6190   -3.6380 c3        1 MOL     -0.227618
    100 H41         2.5340    2.3260   -1.3480 hn        1 MOL      0.119918
    101 H42         3.6210    3.4760   -3.8290 h1        1 MOL      0.094003
    102 H43         2.5010    1.8600   -5.0890 hc        1 MOL     -0.040923
    103 H44         0.5570    3.2390   -3.1500 hc        1 MOL      0.052155
    104 H45         1.2000    3.8530   -4.6450 hc        1 MOL      0.052155
    105 H46         0.0710    2.4600   -4.6340 hc        1 MOL      0.052155
    106 H47         1.2260    0.1270   -4.5070 hc        1 MOL      0.052155
    107 H48         2.5210    0.0030   -3.3490 hc        1 MOL      0.052155
    108 H49         0.9720    0.6740   -2.8050 hc        1 MOL      0.052155
    109 N10         5.0210    1.2960   -2.0130 n         1 MOL     -0.690196
    110 C35         6.3990    0.7960   -1.8430 c3        1 MOL      0.204790
    111 C36         6.3890   -0.6340   -1.4420 c         1 MOL      0.727917
    112 O17         7.2340   -1.3610   -1.9860 o         1 MOL     -0.595622
    113 C37         7.1590    1.7670   -0.9360 c3        1 MOL     -0.417352
    114 C38         7.1450    3.2470   -1.4030 c         1 MOL      0.728910
    115 N11         7.4570    3.4790   -2.6570 n         1 MOL     -0.836030
    116 O18         7.0850    4.1960   -0.6540 o         1 MOL     -0.566252
    117 H50         4.4790    1.5930   -1.2050 hn        1 MOL      0.273579
    118 H51         6.9580    0.7560   -2.7800 h1        1 MOL      0.013319
    119 H52         8.1930    1.4140   -1.0180 hc        1 MOL      0.141844
    120 H53         6.8660    1.6690    0.1180 hc        1 MOL      0.141844
    121 H54         7.5230    2.6680   -3.2560 hn        1 MOL      0.389306
    122 H55         7.4830    4.4420   -2.9650 hn        1 MOL      0.389306
    123 N12         5.5990   -0.9580   -0.4350 n         1 MOL     -0.575339
    124 C39         5.6900   -2.2070    0.2860 c3        1 MOL     -0.016576
    125 C40         4.3230   -2.7850    0.7220 c         1 MOL      0.662587
    126 O19         3.4080   -2.0190    0.9470 o         1 MOL     -0.472013
    127 C41         6.4770   -1.9170    1.5090 c3        1 MOL     -0.154177
    128 C42         7.8640   -1.3270    1.3050 ca        1 MOL      0.091743
    129 C43         8.2540   -0.0430    1.7780 ca        1 MOL     -0.190912
    130 C44         8.7420   -2.1320    0.5570 ca        1 MOL     -0.190912
    131 C45         9.5740    0.3880    1.6180 ca        1 MOL     -0.224537
    132 C46        10.1020   -1.7100    0.4150 ca        1 MOL     -0.224537
    133 C47        10.5070   -0.4890    0.9210 ca        1 MOL      0.280590
    134 O20        11.7960   -0.1600    0.9030 oh        1 MOL     -0.478790
    135 H56         5.0230   -0.2620   -0.0070 hn        1 MOL      0.318084
    136 H57         6.2610   -2.9270   -0.2900 h1        1 MOL      0.057431
    137 H58         6.5240   -2.8120    2.1320 hc        1 MOL      0.081816
    138 H59         5.8090   -1.2520    2.0600 hc        1 MOL      0.081816
    139 H60         7.6800    0.5720    2.4530 ha        1 MOL      0.158007
    140 H61         8.5340   -3.1080    0.1260 ha        1 MOL      0.158007
    141 H62         9.8500    1.3830    1.9380 ha        1 MOL      0.137839
    142 H63        10.7390   -2.3910   -0.1190 ha        1 MOL      0.137839
    143 H64        12.3790   -0.9000    0.7440 ho        1 MOL      0.352354
    144 N13         4.2770   -4.1010    0.7780 n         1 MOL     -0.637789
    145 C48         3.1460   -4.8640    1.2070 c3        1 MOL     -0.076762
    146 C49         1.8240   -4.5570    0.4130 c         1 MOL      0.350304
    147 O21         0.7680   -4.8930    0.8960 o         1 MOL     -0.424850
    148 C50         2.8490   -4.6490    2.7060 c3        1 MOL      0.118043
    149 C51         4.0490   -5.0130    3.6350 c3        1 MOL     -0.080512
    150 C52         3.7140   -4.5800    5.0300 c         1 MOL      0.637060
    151 O22         3.2650   -5.4910    5.7940 o         1 MOL     -0.718938
    152 O23         3.9870   -3.4130    5.4230 o         1 MOL     -0.718938
    153 H65         5.1870   -4.5300    0.7890 hn        1 MOL      0.352315
    154 H66         3.3630   -5.9290    1.1620 h1        1 MOL      0.094718
    155 H67         2.0380   -5.2480    3.1190 hc        1 MOL      0.019686
    156 H68         2.6130   -3.5790    2.7420 hc        1 MOL      0.019686
    157 H69         4.9600   -4.5600    3.2580 hc        1 MOL     -0.030212
    158 H70         4.0890   -6.1020    3.7070 hc        1 MOL     -0.030212
    159 N14         1.8550   -3.9780   -0.8020 n         1 MOL     -0.187144
    160 C53         0.7100   -4.0540   -1.7480 c3        1 MOL     -0.226656
    161 C54         0.8420   -4.9620   -2.9450 c         1 MOL      0.563545
    162 O24        -0.1570   -5.3350   -3.5740 o         1 MOL     -0.522876
    163 C55         0.4220   -2.6930   -2.3480 c3        1 MOL     -0.318278
    164 C56        -0.2580   -1.6420   -1.4290 c3        1 MOL     -0.054040
    165 C57        -1.3750   -2.2580   -0.5040 c         1 MOL      1.127192
    166 O25        -2.3560   -2.9290   -0.8660 o         1 MOL     -0.820013
    167 O26        -1.2670   -2.0760    0.7070 o         1 MOL     -0.820013
    168 H71         2.7260   -3.5940   -1.1130 hn        1 MOL      0.231594
    169 H72        -0.2060   -4.3760   -1.2470 h1        1 MOL      0.184963
    170 H73        -0.2040   -2.8240   -3.2300 hc        1 MOL      0.095612
    171 H74         1.3570   -2.3500   -2.7910 hc        1 MOL      0.095612
    172 H75        -0.6860   -0.9060   -2.1000 hc        1 MOL     -0.009000
    173 H76         0.4850   -1.1280   -0.8040 hc        1 MOL     -0.009000
    174 N15         2.0590   -5.4180   -3.3720 n         1 MOL     -0.317763
    175 C58         2.2430   -6.2650   -4.6220 c3        1 MOL     -0.230382
    176 H77         3.2890   -6.2370   -4.9290 h1        1 MOL      0.105661
    177 H78         1.9540   -7.2940   -4.4100 h1        1 MOL      0.105661
    178 H79         1.6200   -5.8700   -5.4250 h1        1 MOL      0.105661
    179 H80         2.8710   -5.2490   -2.8030 hn        1 MOL      0.215987
    180 Ca1        -4.0060   -2.2620    1.0610 Ca        1 MOL      1.804499
    181 O27        -2.8050   -2.8250    3.4580 oh        1 MOL     -0.919415
    182 H81        -2.2540   -3.5080    3.8530 ho        1 MOL      0.426498
    183 H82        -2.8230   -2.1230    4.1060 ho        1 MOL      0.426498
    184 O28        -3.6980   -4.7680    1.4770 oh        1 MOL     -0.919415
    185 H83        -2.8700   -5.1430    1.7830 ho        1 MOL      0.426498
    186 H84        -4.3740   -5.3240    1.8560 ho        1 MOL      0.426498
@<TRIPOS>BOND
     1    1    2 1   
     2    1    4 1   
     3    1    5 1   
     4    1    6 1   
     5    2    3 2   
     6    2    7 1   
     7    7    8 1   
     8    7   15 1   
     9    8    9 1   
    10    8   11 1   
    11    8   16 1   
    12    9   10 2   
    13    9   19 1   
    14   11   12 1   
    15   11   17 1   
    16   11   18 1   
    17   12   13 1   
    18   12   14 1   
    19   19   20 1   
    20   19   27 1   
    21   20   21 1   
    22   20   23 1   
    23   20   28 1   
    24   21   22 2   
    25   21   38 1   
    26   23   24 1   
    27   23   25 1   
    28   23   29 1   
    29   24   26 1   
    30   24   30 1   
    31   24   31 1   
    32   25   32 1   
    33   25   33 1   
    34   25   34 1   
    35   26   35 1   
    36   26   36 1   
    37   26   37 1   
    38   38   39 1   
    39   38   46 1   
    40   39   40 1   
    41   39   42 1   
    42   39   47 1   
    43   40   41 2   
    44   40   50 1   
    45   42   43 1   
    46   42   48 1   
    47   42   49 1   
    48   43   44 1   
    49   43   45 1   
    50   50   51 1   
    51   50   54 1   
    52   51   52 1   
    53   51   55 1   
    54   51   56 1   
    55   52   53 2   
    56   52   57 1   
    57   57   58 1   
    58   57   65 1   
    59   58   59 1   
    60   58   61 1   
    61   58   66 1   
    62   59   60 2   
    63   59   69 1   
    64   61   62 1   
    65   61   67 1   
    66   61   68 1   
    67   62   63 1   
    68   62   64 1   
    69   69   70 1   
    70   69   73 1   
    71   70   71 1   
    72   70   74 1   
    73   70   75 1   
    74   71   72 2   
    75   71   76 1   
    76   76   77 1   
    77   76   85 1   
    78   77   78 1   
    79   77   80 1   
    80   77   86 1   
    81   78   79 2   
    82   78   93 1   
    83   80   81 1   
    84   80   87 1   
    85   80   88 1   
    86   81   82 1   
    87   81   89 1   
    88   81   90 1   
    89   82   83 1   
    90   82   84 2   
    91   83   91 1   
    92   83   92 1   
    93   93   94 1   
    94   93  100 1   
    95   94   95 1   
    96   94   97 1   
    97   94  101 1   
    98   95   96 2   
    99   95  109 1   
   100   97   98 1   
   101   97   99 1   
   102   97  102 1   
   103   98  103 1   
   104   98  104 1   
   105   98  105 1   
   106   99  106 1   
   107   99  107 1   
   108   99  108 1   
   109  109  110 1   
   110  109  117 1   
   111  110  111 1   
   112  110  113 1   
   113  110  118 1   
   114  111  112 2   
   115  111  123 1   
   116  113  114 1   
   117  113  119 1   
   118  113  120 1   
   119  114  115 1   
   120  114  116 2   
   121  115  121 1   
   122  115  122 1   
   123  123  124 1   
   124  123  135 1   
   125  124  125 1   
   126  124  127 1   
   127  124  136 1   
   128  125  126 2   
   129  125  144 1   
   130  127  128 1   
   131  127  137 1   
   132  127  138 1   
   133  128  129 ar  
   134  128  130 ar  
   135  129  131 ar  
   136  129  139 1   
   137  130  132 ar  
   138  130  140 1   
   139  131  133 ar  
   140  131  141 1   
   141  132  133 ar  
   142  132  142 1   
   143  133  134 1   
   144  134  143 1   
   145  144  145 1   
   146  144  153 1   
   147  145  146 1   
   148  145  148 1   
   149  145  154 1   
   150  146  147 2   
   151  146  159 1   
   152  148  149 1   
   153  148  155 1   
   154  148  156 1   
   155  149  150 1   
   156  149  157 1   
   157  149  158 1   
   158  150  151 1   
   159  150  152 1   
   160  159  160 1   
   161  159  168 1   
   162  160  161 1   
   163  160  163 1   
   164  160  169 1   
   165  161  162 2   
   166  161  174 1   
   167  163  164 1   
   168  163  170 1   
   169  163  171 1   
   170  164  165 1   
   171  164  172 1   
   172  164  173 1   
   173  165  166 1   
   174  165  167 1   
   175  174  175 1   
   176  174  179 1   
   177  175  176 1   
   178  175  177 1   
   179  175  178 1   
   180  181  182 1   
   181  181  183 1   
   182  184  185 1   
   183  184  186 1   
@<TRIPOS>SUBSTRUCTURE
     1 MOL         1 TEMP              0 ****  ****    0 ROOT
