@<TRIPOS>MOLECULE
MOL
  192   187     1     0     0
SMALL
resp


@<TRIPOS>ATOM
      1 C1          0.7290    8.1800   -1.8300 c3        1 MOL     -0.429050
      2 C2          0.8690    6.6370   -1.7800 c         1 MOL      0.652593
      3 O1          0.8670    5.8780   -2.7610 o         1 MOL     -0.594480
      4 H1          1.1890    8.5570   -2.7430 hc        1 MOL      0.111809
      5 H2         -0.3270    8.4510   -1.8180 hc        1 MOL      0.111809
      6 H3          1.2270    8.6190   -0.9660 hc        1 MOL      0.111809
      7 N1          1.1300    6.1150   -0.6050 n         1 MOL     -0.297503
      8 C3          1.5190    4.7370   -0.2260 c3        1 MOL     -0.282027
      9 C4          0.2970    3.9010    0.3300 c         1 MOL      0.608782
     10 O2          0.4100    2.8410    0.9690 o         1 MOL     -0.546124
     11 C5          2.7990    4.7720    0.5940 c3        1 MOL     -0.070336
     12 C6          2.8780    5.5970    1.9230 c         1 MOL      0.607474
     13 O3          1.9480    6.3550    2.3510 o         1 MOL     -0.681317
     14 O4          3.9470    5.4060    2.5910 o         1 MOL     -0.681317
     15 H4          1.1300    6.7210    0.2020 hn        1 MOL      0.197177
     16 H5          1.7880    4.2530   -1.1710 h1        1 MOL      0.194532
     17 H6          3.6640    5.1320    0.0360 hc        1 MOL      0.069378
     18 H7          3.0270    3.7250    0.8310 hc        1 MOL      0.069378
     19 N2         -0.9430    4.3830    0.2640 n         1 MOL     -0.344093
     20 C7         -2.1740    3.7740    0.8080 c3        1 MOL      0.161471
     21 C8         -2.9070    3.3210   -0.4320 c         1 MOL      0.472281
     22 O5         -2.9470    4.0330   -1.4410 o         1 MOL     -0.582515
     23 C9         -3.0410    4.7900    1.6200 c3        1 MOL      0.043226
     24 C10        -2.4810    5.2240    2.9630 c3        1 MOL     -0.298742
     25 C11        -0.9710    5.5240    3.1240 c3        1 MOL      0.291858
     26 C12        -0.7460    5.9330    4.5910 c3        1 MOL      0.083321
     27 N3          0.6050    6.5110    4.8300 n4        1 MOL     -0.376606
     28 H8         -1.0800    5.1460   -0.3940 hn        1 MOL      0.183591
     29 H9         -1.9660    2.9410    1.4900 h1        1 MOL      0.092558
     30 H10        -4.0700    4.4230    1.6590 hc        1 MOL      0.019198
     31 H11        -3.2150    5.6740    1.0100 hc        1 MOL      0.019198
     32 H12        -2.7020    4.4780    3.7280 hc        1 MOL      0.053675
     33 H13        -2.9680    6.1460    3.2830 hc        1 MOL      0.053675
     34 H14        -0.6480    6.3190    2.4590 hc        1 MOL     -0.037326
     35 H15        -0.4410    4.5930    2.9140 hc        1 MOL     -0.037326
     36 H16        -0.8750    5.0270    5.1750 hx        1 MOL      0.037483
     37 H17        -1.5360    6.6000    4.9460 hx        1 MOL      0.037483
     38 H18         0.7140    6.7140    5.8060 hn        1 MOL      0.315492
     39 H19         1.2660    5.7530    4.6720 hn        1 MOL      0.315492
     40 H20         0.8020    7.3480    4.3030 hn        1 MOL      0.315492
     41 N4         -3.4960    2.1530   -0.5530 n         1 MOL     -0.494183
     42 C13        -3.6890    1.0310    0.3660 c3        1 MOL      0.127957
     43 C14        -3.9580    1.4230    1.7920 c         1 MOL      0.556623
     44 O6         -3.2370    1.1440    2.7120 o         1 MOL     -0.540001
     45 C15        -2.4280    0.1250    0.3450 c3        1 MOL     -0.121650
     46 C16        -1.8080   -0.2110   -1.0330 c         1 MOL      0.696410
     47 O7         -0.5810   -0.5040   -1.1500 o         1 MOL     -0.699423
     48 O8         -2.5440   -0.2890   -2.0440 o         1 MOL     -0.699423
     49 H21        -3.7080    2.0390   -1.5360 hn        1 MOL      0.294359
     50 H22        -4.4720    0.4420   -0.1140 h1        1 MOL      0.095663
     51 H23        -2.6280   -0.8120    0.8510 hc        1 MOL      0.009067
     52 H24        -1.6930    0.6630    0.9520 hc        1 MOL      0.009067
     53 N5         -5.1850    1.9360    2.0860 n         1 MOL     -0.453643
     54 C17        -6.2990    1.9910    1.0970 c3        1 MOL     -0.004915
     55 C18        -7.6020    1.3300    1.5390 c         1 MOL      0.552705
     56 O9         -7.7270    0.8440    2.6950 o         1 MOL     -0.579692
     57 H25        -5.3530    1.9420    3.0800 hn        1 MOL      0.294357
     58 H26        -6.0740    1.5800    0.1140 h1        1 MOL      0.055339
     59 H27        -6.5010    3.0540    0.9060 h1        1 MOL      0.055339
     60 N6         -8.6580    1.2090    0.8110 n         1 MOL     -0.331766
     61 C19        -8.8120    1.5580   -0.6390 c3        1 MOL     -0.264729
     62 C20        -8.1670    0.4530   -1.5090 c         1 MOL      0.615507
     63 O10        -7.9190    0.7240   -2.6470 o         1 MOL     -0.520669
     64 C21       -10.2560    1.7670   -1.0790 c3        1 MOL     -0.038869
     65 C22       -11.1890    0.5870   -0.9050 c         1 MOL      0.590837
     66 O11       -11.4880    0.1430    0.2610 o         1 MOL     -0.611481
     67 O12       -11.6660    0.0460   -1.9440 o         1 MOL     -0.611481
     68 H28        -9.4610    0.7170    1.1700 hn        1 MOL      0.232199
     69 H29        -8.3120    2.4980   -0.8920 h1        1 MOL      0.124098
     70 H30       -10.2270    2.0630   -2.1390 hc        1 MOL      0.041059
     71 H31       -10.7760    2.6180   -0.6360 hc        1 MOL      0.041059
     72 N7         -7.7320   -0.6390   -0.8010 n         1 MOL     -0.357648
     73 C23        -6.7330   -1.5840   -1.2950 c3        1 MOL     -0.132269
     74 C24        -5.8330   -2.2180   -0.1140 c         1 MOL      0.565123
     75 O13        -5.6360   -1.5980    0.9640 o         1 MOL     -0.507173
     76 H32        -8.0650   -0.7360    0.1460 hn        1 MOL      0.290683
     77 H33        -6.1210   -1.1170   -2.0630 h1        1 MOL      0.084916
     78 H34        -7.3320   -2.3770   -1.7470 h1        1 MOL      0.084916
     79 N8         -5.3040   -3.4250   -0.4200 n         1 MOL     -0.453610
     80 C25        -4.4610   -4.2500    0.4790 c3        1 MOL     -0.017024
     81 C26        -2.9210   -3.9930    0.3810 c         1 MOL      0.841437
     82 O14        -2.4230   -3.5030   -0.6280 o         1 MOL     -0.673953
     83 C27        -4.6480   -5.6890    0.0420 c3        1 MOL      0.282439
     84 C28        -6.1300   -6.1380    0.1770 c3        1 MOL     -0.431878
     85 O15        -3.8620   -6.4810    0.8440 oh        1 MOL     -0.633557
     86 H35        -5.4110   -3.6840   -1.3940 hn        1 MOL      0.269476
     87 H36        -4.7690   -4.2160    1.5300 h1        1 MOL      0.102586
     88 H37        -4.1980   -5.7900   -0.9490 h1        1 MOL      0.004591
     89 H38        -3.9970   -7.3990    0.5980 ho        1 MOL      0.421879
     90 H39        -6.3400   -7.1450   -0.1760 hc        1 MOL      0.120274
     91 H40        -6.4600   -6.1630    1.2130 hc        1 MOL      0.120274
     92 H41        -6.6930   -5.4220   -0.4270 hc        1 MOL      0.120274
     93 N9         -2.3180   -4.1470    1.5210 n         1 MOL     -0.649764
     94 C29        -0.8900   -3.8050    1.6270 c3        1 MOL     -0.019284
     95 C30         0.0020   -4.9600    1.1610 c         1 MOL      0.566523
     96 O16        -0.0780   -6.1600    1.5200 o         1 MOL     -0.549221
     97 C31        -0.5130   -3.4960    3.1230 c3        1 MOL      0.192060
     98 C32        -1.2810   -2.2930    3.5880 c3        1 MOL      0.101026
     99 C33         1.0400   -3.3520    3.3380 c3        1 MOL     -0.255991
    100 C34        -1.4480   -2.3360    5.1100 c3        1 MOL     -0.222919
    101 H42        -2.9400   -4.3070    2.3060 hn        1 MOL      0.339966
    102 H43        -0.6850   -2.8860    1.0730 h1        1 MOL      0.015393
    103 H44        -0.7600   -4.3760    3.7190 hc        1 MOL      0.007461
    104 H45        -2.3070   -2.3920    3.2430 hc        1 MOL      0.030145
    105 H46        -0.8030   -1.3480    3.3350 hc        1 MOL      0.030145
    106 H47         1.3970   -2.6140    2.6180 hc        1 MOL      0.055257
    107 H48         1.3950   -2.9220    4.2760 hc        1 MOL      0.055257
    108 H49         1.4490   -4.3620    3.3190 hc        1 MOL      0.055257
    109 H50        -2.0360   -3.2190    5.3470 hc        1 MOL      0.043182
    110 H51        -0.5330   -2.4940    5.6700 hc        1 MOL      0.043182
    111 H52        -1.9810   -1.4370    5.4340 hc        1 MOL      0.043182
    112 N10         0.9360   -4.5480    0.3300 n         1 MOL     -0.300434
    113 C35         2.0410   -5.4250   -0.1840 c3        1 MOL     -0.160122
    114 C36         3.4050   -5.0890    0.3830 c         1 MOL      0.381497
    115 O17         4.3760   -5.8320    0.1750 o         1 MOL     -0.518019
    116 C37         2.1800   -5.4890   -1.7550 c3        1 MOL      0.478722
    117 C38         2.0050   -4.1530   -2.4120 c3        1 MOL     -0.217789
    118 O18         1.0860   -6.2650   -2.2190 oh        1 MOL     -0.691408
    119 H53         1.0430   -3.5620    0.1410 hn        1 MOL      0.296050
    120 H54         1.8850   -6.4710    0.0580 h1        1 MOL      0.159671
    121 H55         3.1310   -5.9280   -2.0530 h1        1 MOL      0.037273
    122 H56         0.3690   -5.6910   -2.4900 ho        1 MOL      0.413684
    123 H57         2.5230   -3.3960   -1.8260 hc        1 MOL      0.021102
    124 H58         2.1740   -4.1350   -3.4840 hc        1 MOL      0.021102
    125 H59         0.9670   -3.8600   -2.2930 hc        1 MOL      0.021102
    126 N11         3.5170   -3.9520    1.0610 n         1 MOL     -0.287052
    127 C39         4.7820   -3.2910    1.4270 c3        1 MOL      0.001991
    128 C40         5.5700   -2.8930    0.1550 c         1 MOL      0.497769
    129 O19         5.1640   -3.1510   -1.0090 o         1 MOL     -0.472698
    130 C41         5.6340   -4.1000    2.4390 c3        1 MOL      0.252575
    131 C42         4.7300   -4.7120    3.5220 c3        1 MOL     -0.343596
    132 O20         6.4960   -3.1930    2.9780 oh        1 MOL     -0.661500
    133 H60         2.7560   -3.2920    0.9760 hn        1 MOL      0.240379
    134 H61         4.4930   -2.3280    1.8400 h1        1 MOL      0.085705
    135 H62         6.2030   -4.8910    1.9420 h1        1 MOL      0.053385
    136 H63         6.7130   -3.5540    3.8430 ho        1 MOL      0.416374
    137 H64         5.3820   -4.9890    4.3600 hc        1 MOL      0.098119
    138 H65         4.0390   -4.0110    3.9950 hc        1 MOL      0.098119
    139 H66         4.2300   -5.6170    3.1870 hc        1 MOL      0.098119
    140 N12         6.6340   -2.1230    0.3050 n         1 MOL     -0.420033
    141 C43         7.4790   -1.6950   -0.8550 c3        1 MOL      0.134989
    142 C44         6.9750   -0.5570   -1.7530 c         1 MOL      0.363704
    143 O21         7.1790   -0.5610   -2.9830 o         1 MOL     -0.519297
    144 C45         8.9340   -1.3970   -0.3910 c3        1 MOL     -0.121357
    145 C46         9.1930   -0.1610    0.4490 c3        1 MOL      0.232941
    146 C47        10.6970    0.2810    0.5250 c3        1 MOL     -0.111758
    147 C48        10.9650    1.0960    1.7500 c3        1 MOL     -0.135848
    148 N13        11.1000    0.2930    2.9870 n4        1 MOL     -0.242744
    149 H67         7.0010   -2.0110    1.2290 hn        1 MOL      0.267912
    150 H68         7.6090   -2.5010   -1.5860 h1        1 MOL      0.090406
    151 H69         9.4990   -1.2890   -1.3120 hc        1 MOL      0.009517
    152 H70         9.2460   -2.2370    0.2290 hc        1 MOL      0.009517
    153 H71         8.7220   -0.3230    1.4180 hc        1 MOL     -0.048749
    154 H72         8.6590    0.7090    0.0590 hc        1 MOL     -0.048749
    155 H73        10.8300    0.8390   -0.4110 hc        1 MOL      0.073221
    156 H74        11.2420   -0.6510    0.4900 hc        1 MOL      0.073221
    157 H75        10.1780    1.8470    1.7920 hx        1 MOL      0.140643
    158 H76        11.9460    1.5210    1.5350 hx        1 MOL      0.140643
    159 H77        10.1690   -0.0080    3.2730 hn        1 MOL      0.250918
    160 H78        11.7120   -0.4990    2.8610 hn        1 MOL      0.250918
    161 H79        11.4490    0.8430    3.7610 hn        1 MOL      0.250918
    162 N14         6.1970    0.3450   -1.1410 n         1 MOL     -0.008428
    163 C49         5.5940    1.4870   -1.8540 c3        1 MOL     -0.534623
    164 C50         6.4650    2.6790   -2.1710 c         1 MOL      0.557060
    165 O22         6.6980    3.5110   -1.3130 o         1 MOL     -0.516863
    166 C51         4.3540    1.8940   -1.1050 c3        1 MOL      0.095559
    167 C52         3.2650    0.7730   -0.9750 c3        1 MOL      0.425443
    168 C53         2.5400    0.3370   -2.3110 c         1 MOL      0.714805
    169 O23         1.9250    1.1350   -2.9800 o         1 MOL     -0.833288
    170 O24         2.3830   -0.8670   -2.4490 o         1 MOL     -0.833288
    171 H80         6.0900    0.2580   -0.1450 hn        1 MOL      0.163377
    172 H81         5.1560    1.1180   -2.7780 h1        1 MOL      0.205883
    173 H82         3.8170    2.6040   -1.7420 hc        1 MOL      0.002804
    174 H83         4.4410    2.4530   -0.1760 hc        1 MOL      0.002804
    175 H84         2.4420    1.1830   -0.3800 hc        1 MOL     -0.157601
    176 H85         3.7520   -0.0190   -0.4170 hc        1 MOL     -0.157601
    177 N15         6.9300    2.8600   -3.4110 n         1 MOL     -0.305271
    178 C54         7.6870    4.0940   -3.7350 c3        1 MOL     -0.024811
    179 H86         8.4850    3.8560   -4.4380 h1        1 MOL      0.054083
    180 H87         7.0140    4.8260   -4.1820 h1        1 MOL      0.054083
    181 H88         8.1180    4.5060   -2.8220 h1        1 MOL      0.054083
    182 H89         6.6540    2.2060   -4.1360 hn        1 MOL      0.263553
    183 Ca1        -0.1070   -0.3800   -3.6640 Ca        1 MOL      1.793826
    184 O25        -1.2360   -2.7870   -3.0080 oh        1 MOL     -0.886381
    185 H90        -1.5920   -2.7370   -2.1250 ho        1 MOL      0.434782
    186 H91        -1.4880   -3.6550   -3.3200 ho        1 MOL      0.434782
    187 O26        -2.3450   -1.0000   -5.3680 oh        1 MOL     -0.886381
    188 H92        -3.2520   -1.1310   -5.0940 ho        1 MOL      0.434782
    189 H93        -2.2710   -1.4810   -6.1940 ho        1 MOL      0.434782
    190 O27        -1.1080    2.1260   -3.0880 oh        1 MOL     -0.886381
    191 H94        -1.1540    2.7430   -3.8110 ho        1 MOL      0.434782
    192 H95        -1.6090    2.5410   -2.3850 ho        1 MOL      0.434782
@<TRIPOS>BOND
     1    1    2 1   
     2    1    4 1   
     3    1    5 1   
     4    1    6 1   
     5    2    3 2   
     6    2    7 1   
     7    7    8 1   
     8    7   15 1   
     9    8    9 1   
    10    8   11 1   
    11    8   16 1   
    12    9   10 2   
    13    9   19 1   
    14   11   12 1   
    15   11   17 1   
    16   11   18 1   
    17   12   13 1   
    18   12   14 1   
    19   19   20 1   
    20   19   28 1   
    21   20   21 1   
    22   20   23 1   
    23   20   29 1   
    24   21   22 2   
    25   21   41 1   
    26   23   24 1   
    27   23   30 1   
    28   23   31 1   
    29   24   25 1   
    30   24   32 1   
    31   24   33 1   
    32   25   26 1   
    33   25   34 1   
    34   25   35 1   
    35   26   27 1   
    36   26   36 1   
    37   26   37 1   
    38   27   38 1   
    39   27   39 1   
    40   27   40 1   
    41   41   42 1   
    42   41   49 1   
    43   42   43 1   
    44   42   45 1   
    45   42   50 1   
    46   43   44 2   
    47   43   53 1   
    48   45   46 1   
    49   45   51 1   
    50   45   52 1   
    51   46   47 1   
    52   46   48 1   
    53   53   54 1   
    54   53   57 1   
    55   54   55 1   
    56   54   58 1   
    57   54   59 1   
    58   55   56 2   
    59   55   60 1   
    60   60   61 1   
    61   60   68 1   
    62   61   62 1   
    63   61   64 1   
    64   61   69 1   
    65   62   63 2   
    66   62   72 1   
    67   64   65 1   
    68   64   70 1   
    69   64   71 1   
    70   65   66 1   
    71   65   67 1   
    72   72   73 1   
    73   72   76 1   
    74   73   74 1   
    75   73   77 1   
    76   73   78 1   
    77   74   75 2   
    78   74   79 1   
    79   79   80 1   
    80   79   86 1   
    81   80   81 1   
    82   80   83 1   
    83   80   87 1   
    84   81   82 2   
    85   81   93 1   
    86   83   84 1   
    87   83   85 1   
    88   83   88 1   
    89   84   90 1   
    90   84   91 1   
    91   84   92 1   
    92   85   89 1   
    93   93   94 1   
    94   93  101 1   
    95   94   95 1   
    96   94   97 1   
    97   94  102 1   
    98   95   96 2   
    99   95  112 1   
   100   97   98 1   
   101   97   99 1   
   102   97  103 1   
   103   98  100 1   
   104   98  104 1   
   105   98  105 1   
   106   99  106 1   
   107   99  107 1   
   108   99  108 1   
   109  100  109 1   
   110  100  110 1   
   111  100  111 1   
   112  112  113 1   
   113  112  119 1   
   114  113  114 1   
   115  113  116 1   
   116  113  120 1   
   117  114  115 2   
   118  114  126 1   
   119  116  117 1   
   120  116  118 1   
   121  116  121 1   
   122  117  123 1   
   123  117  124 1   
   124  117  125 1   
   125  118  122 1   
   126  126  127 1   
   127  126  133 1   
   128  127  128 1   
   129  127  130 1   
   130  127  134 1   
   131  128  129 2   
   132  128  140 1   
   133  130  131 1   
   134  130  132 1   
   135  130  135 1   
   136  131  137 1   
   137  131  138 1   
   138  131  139 1   
   139  132  136 1   
   140  140  141 1   
   141  140  149 1   
   142  141  142 1   
   143  141  144 1   
   144  141  150 1   
   145  142  143 2   
   146  142  162 1   
   147  144  145 1   
   148  144  151 1   
   149  144  152 1   
   150  145  146 1   
   151  145  153 1   
   152  145  154 1   
   153  146  147 1   
   154  146  155 1   
   155  146  156 1   
   156  147  148 1   
   157  147  157 1   
   158  147  158 1   
   159  148  159 1   
   160  148  160 1   
   161  148  161 1   
   162  162  163 1   
   163  162  171 1   
   164  163  164 1   
   165  163  166 1   
   166  163  172 1   
   167  164  165 2   
   168  164  177 1   
   169  166  167 1   
   170  166  173 1   
   171  166  174 1   
   172  167  168 1   
   173  167  175 1   
   174  167  176 1   
   175  168  169 1   
   176  168  170 1   
   177  177  178 1   
   178  177  182 1   
   179  178  179 1   
   180  178  180 1   
   181  178  181 1   
   182  184  185 1   
   183  184  186 1   
   184  187  188 1   
   185  187  189 1   
   186  190  191 1   
   187  190  192 1   
@<TRIPOS>SUBSTRUCTURE
     1 MOL         1 TEMP              0 ****  ****    0 ROOT
