@<TRIPOS>MOLECULE
MOL
  192   187     1     0     0
SMALL
resp


@<TRIPOS>ATOM
      1 C1          9.4620    0.6500    1.3620 c3        1 MOL     -0.550985
      2 C2          8.3350    0.2090    0.4760 c         1 MOL      0.806205
      3 O1          7.1970    0.1050    0.9570 o         1 MOL     -0.617699
      4 H1          9.6190   -0.0920    2.1460 hc        1 MOL      0.138527
      5 H2         10.3720    0.7510    0.7700 hc        1 MOL      0.138527
      6 H3          9.2140    1.6090    1.8160 hc        1 MOL      0.138527
      7 N1          8.6740   -0.0830   -0.8130 n         1 MOL     -0.661019
      8 C3          7.6910   -0.4750   -1.9370 c3        1 MOL      0.216743
      9 C4          7.1610   -1.8880   -1.8200 c         1 MOL      0.507623
     10 O2          7.3790   -2.6820   -2.7040 o         1 MOL     -0.508051
     11 C5          8.2910   -0.0560   -3.2930 c3        1 MOL     -0.250726
     12 C6          8.8290    1.3480   -3.3410 c         1 MOL      0.781793
     13 O3         10.0470    1.5390   -3.4250 o         1 MOL     -0.675743
     14 O4          8.0360    2.3300   -3.2990 o         1 MOL     -0.675743
     15 H4          9.6520   -0.0980   -1.0360 hn        1 MOL      0.335240
     16 H5          6.7850    0.1210   -1.8050 h1        1 MOL      0.068432
     17 H6          7.5360   -0.1460   -4.0760 hc        1 MOL      0.053467
     18 H7          9.0900   -0.7200   -3.6200 hc        1 MOL      0.053467
     19 N2          6.5300   -2.3010   -0.6510 n         1 MOL     -0.259982
     20 C7          6.1720   -3.6970   -0.5020 c3        1 MOL      0.151377
     21 C8          4.7370   -3.9780   -0.3600 c         1 MOL      0.509954
     22 O5          4.3250   -5.0180   -0.9010 o         1 MOL     -0.564845
     23 C9          7.0530   -4.3660    0.6130 c3        1 MOL     -0.277920
     24 C10         6.7810   -3.7020    1.9460 c3        1 MOL     -0.026800
     25 C11         7.6620   -4.3710    3.0620 c3        1 MOL     -0.068459
     26 C12         9.1880   -4.1300    2.9680 c3        1 MOL      0.047389
     27 N3          9.8280   -4.3260    4.3190 n4        1 MOL     -0.177604
     28 H8          6.3520   -1.6470    0.1030 hn        1 MOL      0.025680
     29 H9          6.5150   -4.2180   -1.3920 h1        1 MOL      0.084372
     30 H10         8.0700   -4.2550    0.2430 hc        1 MOL      0.096025
     31 H11         6.8050   -5.4090    0.7850 hc        1 MOL      0.096025
     32 H12         5.7280   -3.8490    2.2100 hc        1 MOL      0.044853
     33 H13         7.0640   -2.6590    1.8800 hc        1 MOL      0.044853
     34 H14         7.4940   -5.4470    3.1400 hc        1 MOL      0.047538
     35 H15         7.3170   -4.0020    4.0270 hc        1 MOL      0.047538
     36 H16         9.3970   -3.1140    2.6400 hx        1 MOL      0.064953
     37 H17         9.6510   -4.8000    2.2480 hx        1 MOL      0.064953
     38 H18         9.5800   -3.5730    4.9510 hn        1 MOL      0.220189
     39 H19         9.4970   -5.1650    4.7670 hn        1 MOL      0.220189
     40 H20        10.8190   -4.1870    4.2960 hn        1 MOL      0.220189
     41 N4          3.8160   -3.1790    0.1350 n         1 MOL     -0.508963
     42 C13         3.7810   -1.8900    0.8360 c3        1 MOL      0.389181
     43 C14         3.9790   -0.6010   -0.0320 c         1 MOL      0.358198
     44 O6          3.9480   -0.7550   -1.2670 o         1 MOL     -0.470686
     45 C15         2.5580   -1.8040    1.8100 c3        1 MOL     -0.526385
     46 C16         1.2170   -2.0990    1.1360 c         1 MOL      0.937097
     47 O7          0.7660   -1.2230    0.4020 o         1 MOL     -0.758616
     48 O8          0.6270   -3.2450    1.1880 o         1 MOL     -0.758616
     49 H21         2.9390   -3.6570    0.0110 hn        1 MOL      0.345566
     50 H22         4.6470   -1.8920    1.5050 h1        1 MOL     -0.000421
     51 H23         2.5520   -0.7870    2.1920 hc        1 MOL      0.082095
     52 H24         2.8150   -2.4670    2.6420 hc        1 MOL      0.082095
     53 N5          4.0550    0.5650    0.5330 n         1 MOL     -0.354066
     54 C17         4.1520    1.9030   -0.0710 c3        1 MOL      0.026295
     55 C18         2.8890    2.3810   -0.7350 c         1 MOL      0.714606
     56 O9          1.8330    1.8300   -0.5220 o         1 MOL     -0.687515
     57 H25         4.0420    0.5290    1.5430 hn        1 MOL      0.260147
     58 H26         4.8910    1.7920   -0.8600 h1        1 MOL      0.072848
     59 H27         4.5270    2.7120    0.5590 h1        1 MOL      0.072848
     60 N6          2.9990    3.5740   -1.3910 n         1 MOL     -0.618157
     61 C19         1.9270    4.3740   -2.0020 c3        1 MOL      0.390600
     62 C20         2.3410    5.7970   -2.1420 c         1 MOL      0.364636
     63 O10         3.5400    6.0060   -2.3240 o         1 MOL     -0.500138
     64 C21         1.3660    3.8180   -3.3980 c3        1 MOL     -0.206937
     65 C22         0.9040    2.4130   -3.3800 c         1 MOL      0.670619
     66 O11         1.6520    1.5100   -3.8700 o         1 MOL     -0.677856
     67 O12        -0.2110    2.1490   -2.8910 o         1 MOL     -0.677856
     68 H28         3.8740    4.0720   -1.3890 hn        1 MOL      0.303316
     69 H29         1.0450    4.3320   -1.3620 h1        1 MOL      0.023692
     70 H30         2.1270    3.8330   -4.1860 hc        1 MOL      0.053617
     71 H31         0.5090    4.3980   -3.7420 hc        1 MOL      0.053617
     72 N7          1.4910    6.8100   -2.1260 n         1 MOL     -0.403721
     73 C23        -0.0180    6.7730   -2.2320 c3        1 MOL     -0.092631
     74 C24        -0.6810    6.4400   -0.8360 c         1 MOL      0.604338
     75 O13        -0.2310    6.8660    0.1800 o         1 MOL     -0.507663
     76 H32         1.8440    7.7590   -2.1620 hn        1 MOL      0.317192
     77 H33        -0.3530    6.1050   -3.0190 h1        1 MOL      0.080060
     78 H34        -0.3860    7.7740   -2.4550 h1        1 MOL      0.080060
     79 N8         -1.6620    5.5300   -0.8950 n         1 MOL     -0.701081
     80 C25        -2.3100    4.9960    0.3130 c3        1 MOL      0.242889
     81 C26        -1.5960    3.7480    0.9040 c         1 MOL      0.780479
     82 O14        -1.0880    2.9450    0.0950 o         1 MOL     -0.733245
     83 C27        -3.8350    4.7930    0.0680 c3        1 MOL      0.320933
     84 C28        -4.6520    5.0450    1.3140 c3        1 MOL     -0.516080
     85 O15        -4.0980    3.6360   -0.5240 oh        1 MOL     -0.627812
     86 H35        -1.9010    5.1110   -1.7750 hn        1 MOL      0.345481
     87 H36        -2.1370    5.7270    1.1110 h1        1 MOL     -0.005535
     88 H37        -4.0720    5.5240   -0.7030 h1        1 MOL      0.005955
     89 H38        -4.9430    3.7690   -0.9650 ho        1 MOL      0.425955
     90 H39        -5.7020    4.7800    1.1600 hc        1 MOL      0.129557
     91 H40        -4.1910    4.4110    2.0790 hc        1 MOL      0.129557
     92 H41        -4.6090    6.1050    1.5420 hc        1 MOL      0.129557
     93 N9         -1.5330    3.6960    2.2340 n         1 MOL     -0.368112
     94 C29        -0.8760    2.6820    3.0770 c3        1 MOL     -0.314290
     95 C30        -1.3770    1.2460    2.8260 c         1 MOL      0.664682
     96 O16        -1.2470    0.7540    1.7210 o         1 MOL     -0.574186
     97 C31         0.6580    2.7940    2.8930 c3        1 MOL      0.200645
     98 C32         1.1130    4.3160    3.1600 c3        1 MOL      0.032268
     99 C33         1.3890    2.1330    4.0960 c3        1 MOL     -0.607083
    100 C34         2.4790    4.7140    2.6700 c3        1 MOL     -0.079368
    101 H42        -2.0720    4.4050    2.6970 hn        1 MOL      0.253914
    102 H43        -1.0910    2.9470    4.1090 h1        1 MOL      0.111317
    103 H44         1.0560    2.4400    1.9370 hc        1 MOL      0.083539
    104 H45         1.0410    4.5490    4.2280 hc        1 MOL      0.002888
    105 H46         0.4450    5.0310    2.6850 hc        1 MOL      0.002888
    106 H47         1.1890    1.0730    4.1210 hc        1 MOL      0.157181
    107 H48         2.4520    2.1970    3.8770 hc        1 MOL      0.157181
    108 H49         1.2070    2.5870    5.0680 hc        1 MOL      0.157181
    109 H50         2.5530    4.2760    1.6730 hc        1 MOL      0.020512
    110 H51         2.5460    5.7890    2.5530 hc        1 MOL      0.020512
    111 H52         3.3000    4.3110    3.2670 hc        1 MOL      0.020512
    112 N10        -1.8640    0.5230    3.8420 n         1 MOL     -0.396379
    113 C35        -2.3650   -0.8500    3.7590 c3        1 MOL      0.012924
    114 C36        -3.6320   -1.0660    2.9270 c         1 MOL      0.402164
    115 O17        -3.9250   -2.1320    2.3780 o         1 MOL     -0.466185
    116 C37        -2.4680   -1.6640    5.0800 c3        1 MOL      0.456616
    117 C38        -3.6860   -1.3030    5.9330 c3        1 MOL     -0.359331
    118 O18        -1.2990   -1.3270    5.7760 oh        1 MOL     -0.643263
    119 H53        -2.1770    1.1580    4.5660 hn        1 MOL      0.270150
    120 H54        -1.6160   -1.3940    3.1830 h1        1 MOL      0.028639
    121 H55        -2.5300   -2.7120    4.7950 h1        1 MOL     -0.005430
    122 H56        -0.5950   -1.8910    5.4360 ho        1 MOL      0.399281
    123 H57        -3.6790   -0.2270    6.0880 hc        1 MOL      0.093791
    124 H58        -4.5570   -1.5410    5.3150 hc        1 MOL      0.093791
    125 H59        -3.7140   -1.9630    6.8020 hc        1 MOL      0.093791
    126 N11        -4.4160    0.0220    2.9110 n         1 MOL     -0.129931
    127 C39        -5.7680    0.2050    2.3560 c3        1 MOL     -0.110012
    128 C40        -5.9750   -0.5630    1.0190 c         1 MOL      0.334167
    129 O19        -5.4060   -0.2320   -0.0570 o         1 MOL     -0.453287
    130 C41        -6.0910    1.7470    2.2530 c3        1 MOL      0.445026
    131 C42        -7.3470    2.3030    1.4990 c3        1 MOL     -0.259481
    132 O20        -6.1780    2.1940    3.5510 oh        1 MOL     -0.642906
    133 H60        -4.0910    0.8080    3.4590 hn        1 MOL      0.102809
    134 H61        -6.3560   -0.2580    3.1520 h1        1 MOL      0.069999
    135 H62        -5.2100    2.1520    1.7550 h1        1 MOL     -0.111442
    136 H63        -5.3000    2.4460    3.8490 ho        1 MOL      0.411377
    137 H64        -7.5150    1.8100    0.5360 hc        1 MOL      0.085045
    138 H65        -8.2410    2.0490    2.0690 hc        1 MOL      0.085045
    139 H66        -7.2730    3.3830    1.3710 hc        1 MOL      0.085045
    140 N12        -6.7390   -1.6510    1.0640 n         1 MOL     -0.442506
    141 C43        -7.1620   -2.5660   -0.0850 c3        1 MOL      0.140787
    142 C44        -6.0410   -2.8370   -1.0960 c         1 MOL      0.569725
    143 O21        -6.2450   -2.6150   -2.2510 o         1 MOL     -0.536742
    144 C45        -8.4990   -2.1470   -0.7040 c3        1 MOL     -0.293141
    145 C46        -8.6690   -0.7360   -1.0970 c3        1 MOL     -0.157830
    146 C47       -10.0360   -0.4030   -1.7020 c3        1 MOL     -0.029545
    147 C48       -10.1330   -0.8810   -3.1850 c3        1 MOL      0.036191
    148 N13       -11.5140   -0.7550   -3.6320 n4        1 MOL     -0.298627
    149 H67        -6.9930   -1.8620    2.0190 hn        1 MOL      0.296964
    150 H68        -7.3530   -3.5640    0.3220 h1        1 MOL      0.055459
    151 H69        -9.2330   -2.4280    0.0530 hc        1 MOL      0.111324
    152 H70        -8.7090   -2.8090   -1.5410 hc        1 MOL      0.111324
    153 H71        -7.9040   -0.4770   -1.8220 hc        1 MOL      0.112493
    154 H72        -8.7070   -0.1620   -0.1740 hc        1 MOL      0.112493
    155 H73       -10.1600    0.6790   -1.7110 hc        1 MOL      0.017343
    156 H74       -10.7660   -0.8190   -1.0140 hc        1 MOL      0.017343
    157 H75        -9.8050   -1.9170   -3.1400 hx        1 MOL      0.103943
    158 H76        -9.4390   -0.2830   -3.7730 hx        1 MOL      0.103943
    159 H77       -12.0270   -1.4580   -3.1340 hn        1 MOL      0.248196
    160 H78       -11.8340    0.1880   -3.4470 hn        1 MOL      0.248196
    161 H79       -11.5880   -0.9650   -4.6130 hn        1 MOL      0.248196
    162 N14        -4.8900   -3.3370   -0.5820 n         1 MOL     -0.477027
    163 C49        -3.6400   -3.3670   -1.3330 c3        1 MOL      0.316831
    164 C50        -2.4060   -3.0090   -0.4970 c         1 MOL      0.401151
    165 O22        -1.7420   -2.1060   -0.9600 o         1 MOL     -0.607047
    166 C51        -3.5360   -4.7640   -1.9940 c3        1 MOL     -0.171266
    167 C52        -4.4610   -4.9970   -3.1950 c3        1 MOL     -0.214699
    168 C53        -4.2630   -6.3690   -3.7850 c         1 MOL      0.691511
    169 O23        -3.5340   -6.5180   -4.7780 o         1 MOL     -0.642579
    170 O24        -4.9440   -7.2960   -3.2370 o         1 MOL     -0.642579
    171 H80        -4.7930   -3.5820    0.3910 hn        1 MOL      0.262402
    172 H81        -3.6350   -2.6780   -2.1750 h1        1 MOL      0.051241
    173 H82        -3.6780   -5.5340   -1.2370 hc        1 MOL      0.074695
    174 H83        -2.5200   -4.8450   -2.3830 hc        1 MOL      0.074695
    175 H84        -4.1200   -4.2260   -3.8860 hc        1 MOL      0.052181
    176 H85        -5.4990   -4.9410   -2.8640 hc        1 MOL      0.052181
    177 N15        -1.9990   -3.6290    0.6100 n         1 MOL     -0.225383
    178 C54        -2.5140   -4.8610    1.1750 c3        1 MOL     -0.121875
    179 H86        -1.6820   -5.5010    1.4680 h1        1 MOL      0.047287
    180 H87        -3.1230   -4.6330    2.0500 h1        1 MOL      0.047287
    181 H88        -3.1240   -5.3750    0.4320 h1        1 MOL      0.047287
    182 H89        -1.1240   -3.3150    1.0040 hn        1 MOL      0.324524
    183 Ca1        -0.5970    0.4000   -0.8180 Ca        1 MOL      1.783571
    184 O25        -1.9230   -0.3650   -3.1970 oh        1 MOL     -0.868628
    185 H90        -1.6260    0.0490   -4.0080 ho        1 MOL      0.417269
    186 H91        -1.7270   -1.2930   -3.3200 ho        1 MOL      0.417269
    187 O26         1.4050   -0.7880   -2.4240 oh        1 MOL     -0.868628
    188 H92         1.7090   -0.2270   -3.1370 ho        1 MOL      0.417269
    189 H93         2.1440   -0.8140   -1.8090 ho        1 MOL      0.417269
    190 O27        -3.0850    0.8940   -0.7060 oh        1 MOL     -0.868628
    191 H94        -3.4010    1.7850   -0.8650 ho        1 MOL      0.417269
    192 H95        -3.8840    0.3700   -0.5840 ho        1 MOL      0.417269
@<TRIPOS>BOND
     1    1    2 1   
     2    1    4 1   
     3    1    5 1   
     4    1    6 1   
     5    2    3 2   
     6    2    7 1   
     7    7    8 1   
     8    7   15 1   
     9    8    9 1   
    10    8   11 1   
    11    8   16 1   
    12    9   10 2   
    13    9   19 1   
    14   11   12 1   
    15   11   17 1   
    16   11   18 1   
    17   12   13 1   
    18   12   14 1   
    19   19   20 1   
    20   19   28 1   
    21   20   21 1   
    22   20   23 1   
    23   20   29 1   
    24   21   22 2   
    25   21   41 1   
    26   23   24 1   
    27   23   30 1   
    28   23   31 1   
    29   24   25 1   
    30   24   32 1   
    31   24   33 1   
    32   25   26 1   
    33   25   34 1   
    34   25   35 1   
    35   26   27 1   
    36   26   36 1   
    37   26   37 1   
    38   27   38 1   
    39   27   39 1   
    40   27   40 1   
    41   41   42 1   
    42   41   49 1   
    43   42   43 1   
    44   42   45 1   
    45   42   50 1   
    46   43   44 2   
    47   43   53 1   
    48   45   46 1   
    49   45   51 1   
    50   45   52 1   
    51   46   47 1   
    52   46   48 1   
    53   53   54 1   
    54   53   57 1   
    55   54   55 1   
    56   54   58 1   
    57   54   59 1   
    58   55   56 2   
    59   55   60 1   
    60   60   61 1   
    61   60   68 1   
    62   61   62 1   
    63   61   64 1   
    64   61   69 1   
    65   62   63 2   
    66   62   72 1   
    67   64   65 1   
    68   64   70 1   
    69   64   71 1   
    70   65   66 1   
    71   65   67 1   
    72   72   73 1   
    73   72   76 1   
    74   73   74 1   
    75   73   77 1   
    76   73   78 1   
    77   74   75 2   
    78   74   79 1   
    79   79   80 1   
    80   79   86 1   
    81   80   81 1   
    82   80   83 1   
    83   80   87 1   
    84   81   82 2   
    85   81   93 1   
    86   83   84 1   
    87   83   85 1   
    88   83   88 1   
    89   84   90 1   
    90   84   91 1   
    91   84   92 1   
    92   85   89 1   
    93   93   94 1   
    94   93  101 1   
    95   94   95 1   
    96   94   97 1   
    97   94  102 1   
    98   95   96 2   
    99   95  112 1   
   100   97   98 1   
   101   97   99 1   
   102   97  103 1   
   103   98  100 1   
   104   98  104 1   
   105   98  105 1   
   106   99  106 1   
   107   99  107 1   
   108   99  108 1   
   109  100  109 1   
   110  100  110 1   
   111  100  111 1   
   112  112  113 1   
   113  112  119 1   
   114  113  114 1   
   115  113  116 1   
   116  113  120 1   
   117  114  115 2   
   118  114  126 1   
   119  116  117 1   
   120  116  118 1   
   121  116  121 1   
   122  117  123 1   
   123  117  124 1   
   124  117  125 1   
   125  118  122 1   
   126  126  127 1   
   127  126  133 1   
   128  127  128 1   
   129  127  130 1   
   130  127  134 1   
   131  128  129 2   
   132  128  140 1   
   133  130  131 1   
   134  130  132 1   
   135  130  135 1   
   136  131  137 1   
   137  131  138 1   
   138  131  139 1   
   139  132  136 1   
   140  140  141 1   
   141  140  149 1   
   142  141  142 1   
   143  141  144 1   
   144  141  150 1   
   145  142  143 2   
   146  142  162 1   
   147  144  145 1   
   148  144  151 1   
   149  144  152 1   
   150  145  146 1   
   151  145  153 1   
   152  145  154 1   
   153  146  147 1   
   154  146  155 1   
   155  146  156 1   
   156  147  148 1   
   157  147  157 1   
   158  147  158 1   
   159  148  159 1   
   160  148  160 1   
   161  148  161 1   
   162  162  163 1   
   163  162  171 1   
   164  163  164 1   
   165  163  166 1   
   166  163  172 1   
   167  164  165 2   
   168  164  177 1   
   169  166  167 1   
   170  166  173 1   
   171  166  174 1   
   172  167  168 1   
   173  167  175 1   
   174  167  176 1   
   175  168  169 1   
   176  168  170 1   
   177  177  178 1   
   178  177  182 1   
   179  178  179 1   
   180  178  180 1   
   181  178  181 1   
   182  184  185 1   
   183  184  186 1   
   184  187  188 1   
   185  187  189 1   
   186  190  191 1   
   187  190  192 1   
@<TRIPOS>SUBSTRUCTURE
     1 MOL         1 TEMP              0 ****  ****    0 ROOT
