@<TRIPOS>MOLECULE
MOL
  195   189     1     0     0
SMALL
resp


@<TRIPOS>ATOM
      1 C1         10.1350    5.1630    3.2790 c3        1 MOL     -0.391021
      2 C2          8.8200    4.4550    2.8350 c         1 MOL      0.619173
      3 O1          7.7530    5.1050    2.8960 o         1 MOL     -0.580262
      4 H1         10.7350    4.4730    3.8730 hc        1 MOL      0.107725
      5 H2         10.6990    5.4690    2.3980 hc        1 MOL      0.107725
      6 H3          9.8920    6.0400    3.8790 hc        1 MOL      0.107725
      7 N1          8.7980    3.1100    2.6300 n         1 MOL     -0.401453
      8 C3          7.7050    2.3020    2.1460 c3        1 MOL     -0.142294
      9 C4          6.3590    2.7450    2.7750 c         1 MOL      0.678146
     10 O2          6.2260    2.9170    3.9790 o         1 MOL     -0.494930
     11 C5          7.8520    0.7540    2.4800 c3        1 MOL     -0.318587
     12 C6          9.0080    0.0560    1.8080 c         1 MOL      0.728452
     13 O3          9.4520    0.4680    0.7060 o         1 MOL     -0.646614
     14 O4          9.5980   -0.9590    2.3990 o         1 MOL     -0.646614
     15 H4          9.6890    2.6410    2.7190 hn        1 MOL      0.310676
     16 H5          7.6510    2.3610    1.0610 h1        1 MOL      0.041044
     17 H6          6.9450    0.2270    2.1770 hc        1 MOL      0.114755
     18 H7          8.0200    0.6980    3.5570 hc        1 MOL      0.114755
     19 N2          5.3140    2.9260    1.9380 n         1 MOL     -0.534369
     20 C7          3.9060    3.2060    2.3120 c3        1 MOL      0.010103
     21 C8          2.9980    1.9980    2.8040 c         1 MOL      0.517963
     22 O5          2.1220    2.2220    3.6260 o         1 MOL     -0.563735
     23 C9          3.1690    3.9010    1.1580 c3        1 MOL     -0.120025
     24 C10         3.7870    5.1980    0.7780 c3        1 MOL      0.069507
     25 C11         3.1090    5.7800   -0.4680 c3        1 MOL     -0.158377
     26 C12         3.7240    7.1840   -0.7590 c3        1 MOL     -0.235267
     27 N3          5.1000    6.9990   -1.1510 n4        1 MOL     -0.084057
     28 H8          5.5250    2.8230    0.9500 hn        1 MOL      0.276376
     29 H9          3.8030    3.9350    3.1190 h1        1 MOL      0.094416
     30 H10         2.1290    4.0890    1.4190 hc        1 MOL      0.087189
     31 H11         3.2120    3.2310    0.3020 hc        1 MOL      0.087189
     32 H12         4.8320    5.1920    0.4770 hc        1 MOL      0.041731
     33 H13         3.7380    5.8850    1.6200 hc        1 MOL      0.041731
     34 H14         2.0400    5.9420   -0.2890 hc        1 MOL      0.068761
     35 H15         3.3300    5.1750   -1.3450 hc        1 MOL      0.068761
     36 H16         3.5310    7.7760    0.1340 hx        1 MOL      0.155797
     37 H17         3.1020    7.6510   -1.5230 hx        1 MOL      0.155797
     38 H18         5.5360    7.8980   -1.2560 hn        1 MOL      0.217209
     39 H19         5.7060    6.4320   -0.5750 hn        1 MOL      0.217209
     40 H20         5.1860    6.6020   -2.0790 hn        1 MOL      0.217209
     41 N4          3.1350    0.8160    2.3020 n         1 MOL     -0.416037
     42 C13         3.7440    0.3800    0.9740 c3        1 MOL     -0.103117
     43 C14         4.5980   -0.8930    1.1060 c         1 MOL      0.579944
     44 O6          4.6100   -1.4260    2.2160 o         1 MOL     -0.513200
     45 C15         2.6100   -0.0310    0.0660 c3        1 MOL      0.207260
     46 C16         1.5760   -1.0550    0.5970 c         1 MOL      0.657972
     47 O7          1.6330   -2.2290    0.0540 o         1 MOL     -0.778630
     48 O8          0.6250   -0.6500    1.3550 o         1 MOL     -0.778630
     49 H21         2.6560    0.0880    2.8000 hn        1 MOL      0.361252
     50 H22         4.2890    1.1820    0.4710 h1        1 MOL      0.063085
     51 H23         3.1030   -0.3670   -0.8500 hc        1 MOL     -0.056525
     52 H24         2.0770    0.8850   -0.1820 hc        1 MOL     -0.056525
     53 N5          5.3810   -1.3130    0.0690 n         1 MOL     -0.450946
     54 C17         6.3400   -2.4440    0.1290 c3        1 MOL     -0.075824
     55 C18         6.3650   -3.1860   -1.1710 c         1 MOL      0.686800
     56 O9          7.1460   -2.9170   -2.0630 o         1 MOL     -0.502717
     57 H25         5.3860   -0.8020   -0.8040 hn        1 MOL      0.286718
     58 H26         6.0460   -3.1730    0.8860 h1        1 MOL      0.101925
     59 H27         7.3540   -2.1170    0.3390 h1        1 MOL      0.101925
     60 N6          5.4810   -4.1910   -1.3050 n         1 MOL     -0.451711
     61 C19         5.2830   -4.9980   -2.4930 c3        1 MOL     -0.046529
     62 C20         5.0910   -4.1420   -3.7850 c         1 MOL      0.626581
     63 O10         5.8490   -4.2140   -4.7420 o         1 MOL     -0.535298
     64 C21         6.3010   -6.1270   -2.6690 c3        1 MOL     -0.274314
     65 C22         6.7860   -6.7280   -1.3780 c         1 MOL      0.711364
     66 O11         6.0230   -7.3230   -0.6210 o         1 MOL     -0.598739
     67 O12         8.0460   -6.7320   -1.1580 o         1 MOL     -0.598739
     68 H28         4.8650   -4.3960   -0.5360 hn        1 MOL      0.267313
     69 H29         4.2880   -5.4490   -2.4860 h1        1 MOL      0.070604
     70 H30         7.1690   -5.7700   -3.1990 hc        1 MOL      0.099530
     71 H31         5.9550   -6.9300   -3.3140 hc        1 MOL      0.099530
     72 N7          4.0960   -3.2500   -3.8560 n         1 MOL     -0.590356
     73 C23         3.1050   -2.8790   -2.7110 c3        1 MOL      0.005717
     74 C24         2.0320   -1.8830   -3.1120 c         1 MOL      0.660153
     75 O13         2.2830   -0.7440   -3.3630 o         1 MOL     -0.538968
     76 H32         3.9960   -2.7200   -4.7200 hn        1 MOL      0.316728
     77 H33         3.6280   -2.4170   -1.8810 h1        1 MOL      0.036199
     78 H34         2.5130   -3.7450   -2.4100 h1        1 MOL      0.036199
     79 N8          0.7970   -2.3370   -3.0630 n         1 MOL     -0.476667
     80 C25        -0.3490   -1.6140   -3.5510 c3        1 MOL     -0.017780
     81 C26        -0.6700   -0.4340   -2.7460 c         1 MOL      0.489101
     82 O14        -0.6670   -0.4950   -1.5500 o         1 MOL     -0.442617
     83 C27        -1.5070   -2.6330   -3.7050 c3        1 MOL      0.308398
     84 C28        -2.8380   -2.0470   -4.0170 c3        1 MOL     -0.438616
     85 O15        -1.6660   -3.3650   -2.4410 oh        1 MOL     -0.672689
     86 H35         0.6580   -3.3420   -3.0240 hn        1 MOL      0.266107
     87 H36        -0.0740   -1.2820   -4.5600 h1        1 MOL      0.066249
     88 H37        -1.1360   -3.2740   -4.5100 h1        1 MOL      0.050505
     89 H38        -2.0700   -4.2180   -2.6180 ho        1 MOL      0.396125
     90 H39        -3.5500   -2.8440   -3.8280 hc        1 MOL      0.118921
     91 H40        -3.1680   -1.2380   -3.3610 hc        1 MOL      0.118921
     92 H41        -2.8880   -1.7360   -5.0620 hc        1 MOL      0.118921
     93 N9         -0.9970    0.6740   -3.4350 n         1 MOL     -0.486628
     94 C29        -1.1440    2.0420   -2.8700 c3        1 MOL      0.005692
     95 C30        -2.2150    2.2620   -1.8150 c         1 MOL      0.790261
     96 O16        -2.5870    1.3670   -1.0880 o         1 MOL     -0.654328
     97 C31         0.3090    2.6670   -2.6930 c3        1 MOL      0.143691
     98 C32         0.9990    2.6870   -4.0540 c3        1 MOL     -0.032041
     99 C33         0.1740    4.1790   -2.2220 c3        1 MOL     -0.284166
    100 C34         0.2880    3.4770   -5.1800 c3        1 MOL     -0.237995
    101 H42        -1.0640    0.5810   -4.4410 hn        1 MOL      0.319186
    102 H43        -1.5950    2.4590   -3.7720 h1        1 MOL      0.029482
    103 H44         0.9450    2.1110   -2.0090 hc        1 MOL     -0.007402
    104 H45         1.1360    1.6580   -4.3860 hc        1 MOL      0.041010
    105 H46         2.0010    3.0840   -3.9420 hc        1 MOL      0.041010
    106 H47        -0.6010    4.6120   -2.8470 hc        1 MOL      0.074433
    107 H48         0.1040    4.3430   -1.1450 hc        1 MOL      0.074433
    108 H49         1.0590    4.7420   -2.5210 hc        1 MOL      0.074433
    109 H50        -0.7150    3.1510   -5.4580 hc        1 MOL      0.063041
    110 H51         0.3000    4.5460   -4.9500 hc        1 MOL      0.063041
    111 H52         0.9420    3.3780   -6.0400 hc        1 MOL      0.063041
    112 N10        -2.6850    3.5080   -1.6640 n         1 MOL     -0.342398
    113 C35        -3.7100    3.9690   -0.6980 c3        1 MOL     -0.114449
    114 C36        -5.1730    3.4900   -0.8440 c         1 MOL      0.366411
    115 O17        -5.9960    3.8560   -0.0160 o         1 MOL     -0.530645
    116 C37        -3.7470    5.4610   -0.4630 c3        1 MOL      0.395431
    117 C38        -3.9820    6.3960   -1.6800 c3        1 MOL     -0.288592
    118 O18        -2.4950    5.8550    0.0440 oh        1 MOL     -0.643385
    119 H53        -2.3200    4.2260   -2.2810 hn        1 MOL      0.146319
    120 H54        -3.3920    3.5120    0.2270 h1        1 MOL      0.167196
    121 H55        -4.4690    5.7520    0.2940 h1        1 MOL      0.028530
    122 H56        -2.5110    6.8080    0.0100 ho        1 MOL      0.398238
    123 H57        -3.2800    6.2610   -2.5010 hc        1 MOL      0.074215
    124 H58        -4.9890    6.1940   -2.0390 hc        1 MOL      0.074215
    125 H59        -3.9350    7.4680   -1.4820 hc        1 MOL      0.074215
    126 N11        -5.4060    2.5260   -1.6740 n         1 MOL      0.006836
    127 C39        -6.6660    1.8870   -2.0490 c3        1 MOL     -0.177296
    128 C40        -7.0490    0.7290   -1.0760 c         1 MOL      0.480529
    129 O19        -7.1430   -0.5030   -1.4020 o         1 MOL     -0.506278
    130 C41        -6.6240    1.5260   -3.5890 c3        1 MOL      0.381975
    131 C42        -6.3430    2.7160   -4.5470 c3        1 MOL     -0.305175
    132 O20        -5.6600    0.5520   -3.6620 oh        1 MOL     -0.551271
    133 H60        -4.6640    2.2940   -2.3200 hn        1 MOL      0.079634
    134 H61        -7.4290    2.6460   -1.8830 h1        1 MOL      0.072918
    135 H62        -7.5840    1.0840   -3.8710 h1        1 MOL     -0.014928
    136 H63        -6.0260   -0.2750   -3.3290 ho        1 MOL      0.377566
    137 H64        -5.2670    2.9300   -4.5070 hc        1 MOL      0.086400
    138 H65        -6.6410    2.4210   -5.5470 hc        1 MOL      0.086400
    139 H66        -6.7990    3.6540   -4.2410 hc        1 MOL      0.086400
    140 N12        -7.1430    1.1170    0.2420 n         1 MOL     -0.502105
    141 C43        -7.2210    0.2030    1.4460 c3        1 MOL      0.266531
    142 C44        -6.1010   -0.7910    1.6450 c         1 MOL      0.495095
    143 O21        -5.4100   -1.2150    0.7640 o         1 MOL     -0.558449
    144 C45        -8.5940   -0.4880    1.4490 c3        1 MOL     -0.375199
    145 C46        -9.7270    0.4660    1.3300 c3        1 MOL      0.053177
    146 C47       -11.0810   -0.2930    1.4450 c3        1 MOL      0.067249
    147 C48       -11.5980   -0.9630    0.1460 c3        1 MOL     -0.069097
    148 N13       -12.1280   -0.0850   -0.8770 n4        1 MOL     -0.063233
    149 H67        -6.7950    2.0580    0.3740 hn        1 MOL      0.272180
    150 H68        -7.2200    0.7990    2.3540 h1        1 MOL      0.039643
    151 H69        -8.6810   -1.0580    2.3810 hc        1 MOL      0.105594
    152 H70        -8.5800   -1.1760    0.6060 hc        1 MOL      0.105594
    153 H71        -9.7510    0.9610    0.3590 hc        1 MOL      0.010796
    154 H72        -9.5700    1.2560    2.0700 hc        1 MOL      0.010796
    155 H73       -11.8260    0.4460    1.7350 hc        1 MOL      0.013983
    156 H74       -11.0540   -1.0350    2.2430 hc        1 MOL      0.013983
    157 H75       -12.3410   -1.7080    0.4300 hx        1 MOL      0.098227
    158 H76       -10.7360   -1.4830   -0.2890 hx        1 MOL      0.098227
    159 H77       -11.4980    0.6570   -1.1520 hn        1 MOL      0.158858
    160 H78       -12.3620   -0.6570   -1.6720 hn        1 MOL      0.158858
    161 H79       -13.0160    0.2850   -0.5770 hn        1 MOL      0.158858
    162 N14        -5.8140   -1.0550    2.8850 n         1 MOL     -0.527593
    163 C49        -4.6200   -1.8630    3.2610 c3        1 MOL      0.449669
    164 C50        -3.2180   -1.1790    3.0170 c         1 MOL      0.342859
    165 O22        -2.3870   -1.8070    2.3790 o         1 MOL     -0.519011
    166 C51        -4.7500   -2.3790    4.7050 c3        1 MOL      0.141209
    167 C52        -5.3320   -3.7920    4.7100 c3        1 MOL     -0.309032
    168 C53        -5.5210   -4.2510    6.1380 c         1 MOL      0.803714
    169 O23        -4.6770   -4.9530    6.6570 o         1 MOL     -0.731844
    170 O24        -6.5260   -3.8950    6.7910 o         1 MOL     -0.731844
    171 H80        -6.4430   -0.7580    3.6220 hn        1 MOL      0.326462
    172 H81        -4.6230   -2.6850    2.5400 h1        1 MOL     -0.035878
    173 H82        -5.4340   -1.7480    5.2780 hc        1 MOL     -0.025908
    174 H83        -3.8150   -2.4530    5.2590 hc        1 MOL     -0.025908
    175 H84        -4.7300   -4.5450    4.2090 hc        1 MOL      0.003912
    176 H85        -6.3330   -3.6740    4.2920 hc        1 MOL      0.003912
    177 N15        -3.0320    0.1120    3.4650 n         1 MOL     -0.465204
    178 C54        -3.8470    0.9040    4.4140 c3        1 MOL      0.103315
    179 H86        -3.5740    0.6400    5.4360 h1        1 MOL      0.013027
    180 H87        -3.6620    1.9660    4.2530 h1        1 MOL      0.013027
    181 H88        -4.9030    0.6910    4.2530 h1        1 MOL      0.013027
    182 H89        -2.1860    0.5810    3.1730 hn        1 MOL      0.383772
    183 Ca1        -1.0630   -2.7080    0.1820 Ca        1 MOL      1.722254
    184 O25        -3.3450   -4.1640    0.6160 oh        1 MOL     -0.828096
    185 H90        -4.0080   -3.9710   -0.0430 ho        1 MOL      0.422660
    186 H91        -3.8120   -4.6370    1.3030 ho        1 MOL      0.422660
    187 O26        -0.0830   -4.9810   -0.7810 oh        1 MOL     -0.828096
    188 H92         0.5350   -5.1440   -1.4940 ho        1 MOL      0.422660
    189 H93        -0.1730   -5.8240   -0.3420 ho        1 MOL      0.422660
    190 O27        -0.2480   -4.4620    2.1720 oh        1 MOL     -0.828096
    191 H94         0.6400   -4.8180    2.0930 ho        1 MOL      0.422660
    192 H95        -0.5040   -4.6360    3.0720 ho        1 MOL      0.422660
    193 O28        -3.2390   -1.1400   -0.3680 oh        1 MOL     -0.828096
    194 H96        -4.1040   -1.2820    0.0270 ho        1 MOL      0.422660
    195 H97        -3.2270   -0.2130   -0.6070 ho        1 MOL      0.422660
@<TRIPOS>BOND
     1    1    2 1   
     2    1    4 1   
     3    1    5 1   
     4    1    6 1   
     5    2    3 2   
     6    2    7 1   
     7    7    8 1   
     8    7   15 1   
     9    8    9 1   
    10    8   11 1   
    11    8   16 1   
    12    9   10 2   
    13    9   19 1   
    14   11   12 1   
    15   11   17 1   
    16   11   18 1   
    17   12   13 1   
    18   12   14 1   
    19   19   20 1   
    20   19   28 1   
    21   20   21 1   
    22   20   23 1   
    23   20   29 1   
    24   21   22 2   
    25   21   41 1   
    26   23   24 1   
    27   23   30 1   
    28   23   31 1   
    29   24   25 1   
    30   24   32 1   
    31   24   33 1   
    32   25   26 1   
    33   25   34 1   
    34   25   35 1   
    35   26   27 1   
    36   26   36 1   
    37   26   37 1   
    38   27   38 1   
    39   27   39 1   
    40   27   40 1   
    41   41   42 1   
    42   41   49 1   
    43   42   43 1   
    44   42   45 1   
    45   42   50 1   
    46   43   44 2   
    47   43   53 1   
    48   45   46 1   
    49   45   51 1   
    50   45   52 1   
    51   46   47 1   
    52   46   48 1   
    53   53   54 1   
    54   53   57 1   
    55   54   55 1   
    56   54   58 1   
    57   54   59 1   
    58   55   56 2   
    59   55   60 1   
    60   60   61 1   
    61   60   68 1   
    62   61   62 1   
    63   61   64 1   
    64   61   69 1   
    65   62   63 2   
    66   62   72 1   
    67   64   65 1   
    68   64   70 1   
    69   64   71 1   
    70   65   66 1   
    71   65   67 1   
    72   72   73 1   
    73   72   76 1   
    74   73   74 1   
    75   73   77 1   
    76   73   78 1   
    77   74   75 2   
    78   74   79 1   
    79   79   80 1   
    80   79   86 1   
    81   80   81 1   
    82   80   83 1   
    83   80   87 1   
    84   81   82 2   
    85   81   93 1   
    86   83   84 1   
    87   83   85 1   
    88   83   88 1   
    89   84   90 1   
    90   84   91 1   
    91   84   92 1   
    92   85   89 1   
    93   93   94 1   
    94   93  101 1   
    95   94   95 1   
    96   94   97 1   
    97   94  102 1   
    98   95   96 2   
    99   95  112 1   
   100   97   98 1   
   101   97   99 1   
   102   97  103 1   
   103   98  100 1   
   104   98  104 1   
   105   98  105 1   
   106   99  106 1   
   107   99  107 1   
   108   99  108 1   
   109  100  109 1   
   110  100  110 1   
   111  100  111 1   
   112  112  113 1   
   113  112  119 1   
   114  113  114 1   
   115  113  116 1   
   116  113  120 1   
   117  114  115 2   
   118  114  126 1   
   119  116  117 1   
   120  116  118 1   
   121  116  121 1   
   122  117  123 1   
   123  117  124 1   
   124  117  125 1   
   125  118  122 1   
   126  126  127 1   
   127  126  133 1   
   128  127  128 1   
   129  127  130 1   
   130  127  134 1   
   131  128  129 2   
   132  128  140 1   
   133  130  131 1   
   134  130  132 1   
   135  130  135 1   
   136  131  137 1   
   137  131  138 1   
   138  131  139 1   
   139  132  136 1   
   140  140  141 1   
   141  140  149 1   
   142  141  142 1   
   143  141  144 1   
   144  141  150 1   
   145  142  143 2   
   146  142  162 1   
   147  144  145 1   
   148  144  151 1   
   149  144  152 1   
   150  145  146 1   
   151  145  153 1   
   152  145  154 1   
   153  146  147 1   
   154  146  155 1   
   155  146  156 1   
   156  147  148 1   
   157  147  157 1   
   158  147  158 1   
   159  148  159 1   
   160  148  160 1   
   161  148  161 1   
   162  162  163 1   
   163  162  171 1   
   164  163  164 1   
   165  163  166 1   
   166  163  172 1   
   167  164  165 2   
   168  164  177 1   
   169  166  167 1   
   170  166  173 1   
   171  166  174 1   
   172  167  168 1   
   173  167  175 1   
   174  167  176 1   
   175  168  169 1   
   176  168  170 1   
   177  177  178 1   
   178  177  182 1   
   179  178  179 1   
   180  178  180 1   
   181  178  181 1   
   182  184  185 1   
   183  184  186 1   
   184  187  188 1   
   185  187  189 1   
   186  190  191 1   
   187  190  192 1   
   188  193  194 1   
   189  193  195 1   
@<TRIPOS>SUBSTRUCTURE
     1 MOL         1 TEMP              0 ****  ****    0 ROOT
