@<TRIPOS>MOLECULE
MOL
  178   175     1     0     0
SMALL
resp


@<TRIPOS>ATOM
      1 C1          3.4660   -2.0710    3.5020 c3        1 MOL     -0.365871
      2 C2          4.6400   -1.1930    3.0850 c         1 MOL      0.690721
      3 O1          4.5350   -0.0980    2.5910 o         1 MOL     -0.595701
      4 H1          2.5650   -1.7430    2.9820 hc        1 MOL      0.094360
      5 H2          3.6770   -3.1080    3.2430 hc        1 MOL      0.094360
      6 H3          3.3140   -1.9890    4.5780 hc        1 MOL      0.094360
      7 N1          5.7830   -1.8290    3.0130 n         1 MOL     -0.447464
      8 C3          7.0830   -1.3020    2.7190 c3        1 MOL      0.147059
      9 C4          7.8990   -1.9300    1.5410 c         1 MOL      0.420192
     10 O2          8.4400   -1.1760    0.7670 o         1 MOL     -0.525640
     11 C5          7.9520   -1.1800    3.9140 c3        1 MOL     -0.347028
     12 C6          8.0120   -2.5020    4.7650 c         1 MOL      0.700010
     13 O3          8.6110   -2.4990    5.8940 o         1 MOL     -0.696895
     14 O4          7.5150   -3.5570    4.2770 o         1 MOL     -0.696895
     15 H4          5.8900   -2.6990    3.5030 hn        1 MOL      0.242378
     16 H5          6.9370   -0.2910    2.3460 h1        1 MOL      0.081946
     17 H6          7.6340   -0.3750    4.5930 hc        1 MOL      0.079004
     18 H7          8.9100   -0.8540    3.5300 hc        1 MOL      0.079004
     19 N2          7.8630   -3.2370    1.3150 n         1 MOL     -0.258602
     20 C7          8.2150   -3.9270    0.0630 c3        1 MOL      0.196034
     21 C8          7.2750   -3.4550   -1.1050 c         1 MOL      0.376410
     22 O5          7.7700   -3.0460   -2.1240 o         1 MOL     -0.459273
     23 C9          9.7290   -3.7920   -0.1640 c3        1 MOL     -0.351854
     24 H8          7.5200   -3.7890    2.0830 hn        1 MOL      0.198035
     25 H9          7.9480   -4.9700    0.2550 h1        1 MOL      0.024780
     26 H10        10.1000   -4.4520   -0.9480 hc        1 MOL      0.089644
     27 H11         9.9840   -2.7870   -0.5280 hc        1 MOL      0.089644
     28 H12        10.1950   -4.0950    0.7680 hc        1 MOL      0.089644
     29 N3          6.0040   -3.3630   -0.7330 n         1 MOL     -0.500817
     30 C10         4.9620   -2.5430   -1.3050 c3        1 MOL      0.570989
     31 C11         5.3720   -1.1060   -1.6820 c         1 MOL      0.249906
     32 O6          5.3810   -0.6940   -2.8510 o         1 MOL     -0.504475
     33 C12         4.2670   -3.3410   -2.4340 c3        1 MOL     -0.395071
     34 C13         2.8160   -2.9530   -2.7170 c         1 MOL      0.695715
     35 O7          2.1070   -3.8470   -3.2550 o         1 MOL     -0.687722
     36 O8          2.2600   -1.9540   -2.2220 o         1 MOL     -0.687722
     37 H13         5.8110   -3.9010    0.1030 hn        1 MOL      0.220968
     38 H14         4.2240   -2.4840   -0.5060 h1        1 MOL      0.009355
     39 H15         4.2410   -4.3940   -2.1580 hc        1 MOL      0.072010
     40 H16         4.8530   -3.1910   -3.3370 hc        1 MOL      0.072010
     41 N4          5.6350   -0.2910   -0.6870 n         1 MOL      0.118190
     42 C14         5.9760    1.1590   -0.8860 c3        1 MOL     -0.245507
     43 C15         5.1030    2.0590   -1.6870 c         1 MOL      0.580058
     44 O9          5.5210    3.1300   -2.2070 o         1 MOL     -0.590268
     45 H17         5.6970   -0.7050    0.2320 hn        1 MOL     -0.076699
     46 H18         6.9230    1.2810   -1.3950 h1        1 MOL      0.124385
     47 H19         6.1910    1.6070    0.0740 h1        1 MOL      0.124385
     48 N5          3.7770    1.7460   -1.7090 n         1 MOL     -0.316698
     49 C16         2.8130    2.5650   -2.3830 c3        1 MOL     -0.027177
     50 C17         2.4920    3.9290   -1.6480 c         1 MOL      0.524102
     51 O10         2.1070    3.9050   -0.5110 o         1 MOL     -0.506373
     52 C18         1.5290    1.6580   -2.6290 c3        1 MOL     -0.146858
     53 C19         0.7220    2.2470   -3.7740 c         1 MOL      0.564573
     54 N6         -0.4570    1.6750   -3.9990 n         1 MOL     -0.803174
     55 O11         1.0040    3.2750   -4.4330 o         1 MOL     -0.575833
     56 H20         3.4410    0.8690   -1.3250 hn        1 MOL      0.183542
     57 H21         3.1820    2.8170   -3.3720 h1        1 MOL      0.039532
     58 H22         0.9040    1.6870   -1.7330 hc        1 MOL      0.148492
     59 H23         1.8180    0.6330   -2.8620 hc        1 MOL      0.148492
     60 H24        -0.8040    1.0330   -3.2980 hn        1 MOL      0.341769
     61 H25        -1.1330    2.0220   -4.6600 hn        1 MOL      0.341769
     62 N7          2.4960    5.0660   -2.4210 n         1 MOL     -0.295794
     63 C20         2.3950    6.4300   -1.8060 c3        1 MOL     -0.116369
     64 C21         0.9740    6.8180   -1.3460 c         1 MOL      0.599226
     65 O12        -0.0060    6.4520   -2.0380 o         1 MOL     -0.511342
     66 H26         2.8920    5.0510   -3.3460 hn        1 MOL      0.275101
     67 H27         2.6840    7.1740   -2.5440 h1        1 MOL      0.064515
     68 H28         3.0520    6.5870   -0.9490 h1        1 MOL      0.064515
     69 N8          0.7390    7.5560   -0.2570 n         1 MOL     -0.533424
     70 C22        -0.6040    7.9520    0.1650 c3        1 MOL     -0.105768
     71 C23        -1.5040    6.8500    0.9120 c         1 MOL      0.416731
     72 O13        -2.5230    7.2230    1.5280 o         1 MOL     -0.565997
     73 C24        -0.5810    9.2530    1.0580 c3        1 MOL      0.412837
     74 C25         0.1910    9.1560    2.3840 c3        1 MOL     -0.285392
     75 O14        -0.0610   10.2730    0.1590 oh        1 MOL     -0.641555
     76 H29         1.5810    7.7680    0.2620 hn        1 MOL      0.303525
     77 H30        -1.2280    8.1940   -0.7030 h1        1 MOL      0.139982
     78 H31        -1.6020    9.5810    1.2840 h1        1 MOL      0.041449
     79 H32         0.8210   10.0000   -0.0990 ho        1 MOL      0.367080
     80 H33         0.6100   10.1020    2.7190 hc        1 MOL      0.069101
     81 H34        -0.4490    8.8310    3.2030 hc        1 MOL      0.069101
     82 H35         1.0390    8.4760    2.2930 hc        1 MOL      0.069101
     83 N9         -1.2080    5.5640    0.8210 n         1 MOL     -0.089559
     84 C26        -1.9360    4.4520    1.4650 c3        1 MOL     -0.012953
     85 C27        -2.0570    3.2610    0.4400 c         1 MOL      0.268418
     86 O15        -1.2750    3.2490   -0.5320 o         1 MOL     -0.330023
     87 C28        -1.2520    3.9790    2.7430 c3        1 MOL      0.038438
     88 C29         0.2490    3.5340    2.5990 c3        1 MOL      0.122718
     89 C30        -1.3310    5.0040    3.8260 c3        1 MOL     -0.395925
     90 C31         0.7040    2.8300    3.8830 c3        1 MOL     -0.131092
     91 H36        -0.5880    5.2430    0.0830 hn        1 MOL      0.115002
     92 H37        -2.9450    4.7630    1.7360 h1        1 MOL      0.074599
     93 H38        -1.8820    3.1270    3.0050 hc        1 MOL      0.016364
     94 H39         0.8860    4.3890    2.3600 hc        1 MOL      0.015578
     95 H40         0.3980    2.8390    1.7770 hc        1 MOL      0.015578
     96 H41        -2.2930    5.5050    3.6880 hc        1 MOL      0.098393
     97 H42        -1.1750    4.5260    4.7830 hc        1 MOL      0.098393
     98 H43        -0.6650    5.8550    3.6900 hc        1 MOL      0.098393
     99 H44         0.0270    1.9940    4.0890 hc        1 MOL      0.028873
    100 H45         1.6930    2.3900    3.7690 hc        1 MOL      0.028873
    101 H46         0.8200    3.5470    4.6940 hc        1 MOL      0.028873
    102 N10        -2.7620    2.1100    0.7020 n         1 MOL     -0.267045
    103 C32        -2.7010    0.8180   -0.0800 c3        1 MOL     -0.391074
    104 C33        -3.9690    0.0110   -0.0670 c         1 MOL      0.745282
    105 O16        -4.0060   -1.2370   -0.2820 o         1 MOL     -0.637572
    106 C34        -1.4300    0.0430    0.4080 c3        1 MOL      0.091596
    107 C35        -0.7630   -0.6390   -0.7660 c         1 MOL      0.484781
    108 O17        -0.9910   -0.3970   -1.9720 o         1 MOL     -0.624488
    109 O18         0.0170   -1.5750   -0.5300 o         1 MOL     -0.624488
    110 H47        -3.4570    2.1460    1.4300 hn        1 MOL      0.242805
    111 H48        -2.5130    1.1950   -1.0900 h1        1 MOL      0.130879
    112 H49        -1.6680   -0.7110    1.1610 hc        1 MOL      0.027928
    113 H50        -0.8710    0.7970    0.9690 hc        1 MOL      0.027928
    114 N11        -5.0920    0.5840    0.3020 n         1 MOL     -0.344613
    115 C36        -6.3880   -0.0800    0.2260 c3        1 MOL      0.063917
    116 C37        -6.3900   -1.3350    1.1020 c         1 MOL      0.346860
    117 O19        -6.1030   -1.2680    2.3030 o         1 MOL     -0.538025
    118 C38        -7.5790    0.9090    0.5030 c3        1 MOL     -0.059671
    119 C39        -8.8560    0.2950    0.1410 ca        1 MOL      0.006055
    120 C40        -9.0910    0.2410   -1.2110 ca        1 MOL     -0.135747
    121 C41        -9.5400   -0.5410    1.0890 ca        1 MOL     -0.135747
    122 C42       -10.1250   -0.7060   -1.6430 ca        1 MOL     -0.168608
    123 C43       -10.4980   -1.4140    0.6510 ca        1 MOL     -0.168608
    124 C44       -10.8140   -1.4710   -0.6840 ca        1 MOL     -0.024467
    125 H51        -5.0660    1.5440    0.6200 hn        1 MOL      0.203516
    126 H52        -6.5210   -0.4180   -0.8090 h1        1 MOL      0.015885
    127 H53        -7.4420    1.7750   -0.1530 hc        1 MOL      0.056339
    128 H54        -7.5700    1.3410    1.5020 hc        1 MOL      0.056339
    129 H55        -8.5310    0.7900   -1.9650 ha        1 MOL      0.134373
    130 H56        -9.2830   -0.4580    2.1350 ha        1 MOL      0.134373
    131 H57       -10.3480   -0.7600   -2.6980 ha        1 MOL      0.120548
    132 H58       -11.0170   -2.0880    1.3200 ha        1 MOL      0.120548
    133 H59       -11.6100   -2.1220   -1.0020 ha        1 MOL      0.081821
    134 N12        -6.7340   -2.4990    0.5220 n         1 MOL      0.153595
    135 C45        -6.9690   -3.7360    1.3040 c3        1 MOL     -0.254435
    136 C46        -5.6640   -4.2470    2.0200 c         1 MOL      0.335800
    137 O20        -5.6390   -5.2410    2.7640 o         1 MOL     -0.521086
    138 C47        -7.4070   -4.7430    0.2600 c3        1 MOL      0.212930
    139 C48        -6.8110   -4.2640   -0.9870 c3        1 MOL     -0.098241
    140 C49        -6.9270   -2.7420   -0.8960 c3        1 MOL     -0.154052
    141 H60        -7.7490   -3.6310    2.0600 h1        1 MOL      0.112312
    142 H61        -7.2730   -5.7890    0.5550 hc        1 MOL     -0.019274
    143 H62        -8.4810   -4.6500    0.1280 hc        1 MOL     -0.019274
    144 H63        -5.7900   -4.6510   -0.8800 hc        1 MOL      0.021643
    145 H64        -7.3550   -4.6420   -1.8470 hc        1 MOL      0.021643
    146 H65        -6.1430   -2.2680   -1.4880 h1        1 MOL      0.080806
    147 H66        -7.9270   -2.4600   -1.2300 h1        1 MOL      0.080806
    148 N13        -4.4390   -3.7000    1.7350 n         1 MOL      0.029178
    149 C50        -3.1230   -3.9480    2.2930 c3        1 MOL     -0.262686
    150 C51        -2.7400   -3.0700    3.4850 c         1 MOL      0.443837
    151 O21        -1.9730   -3.5130    4.3390 o         1 MOL     -0.514664
    152 C52        -2.1580   -3.8100    1.1620 c3        1 MOL      0.188413
    153 C53        -2.3920   -4.7920   -0.0180 c3        1 MOL     -0.085948
    154 C54        -1.6860   -4.4060   -1.3060 c         1 MOL      0.559196
    155 O22        -0.5010   -4.7140   -1.3660 o         1 MOL     -0.710693
    156 O23        -2.1380   -3.5730   -2.0930 o         1 MOL     -0.710693
    157 H67        -4.4660   -2.9360    1.0670 hn        1 MOL      0.218071
    158 H68        -2.9940   -5.0190    2.5020 h1        1 MOL      0.099257
    159 H69        -1.1410   -3.9560    1.5360 hc        1 MOL      0.037872
    160 H70        -2.2020   -2.7930    0.7480 hc        1 MOL      0.037872
    161 H71        -3.4610   -4.9180   -0.1960 hc        1 MOL     -0.001738
    162 H72        -1.9120   -5.7170    0.2940 hc        1 MOL     -0.001738
    163 N14        -3.4250   -1.8850    3.5360 n         1 MOL     -0.140881
    164 C55        -3.3280   -0.9280    4.6620 c3        1 MOL     -0.205721
    165 H73        -4.3010   -0.8350    5.1440 h1        1 MOL      0.085746
    166 H74        -2.5980   -1.2900    5.3850 h1        1 MOL      0.085746
    167 H75        -3.0150    0.0460    4.2860 h1        1 MOL      0.085746
    168 H76        -4.1800   -1.7290    2.8770 hn        1 MOL      0.144506
    169 Ca1        -0.1340   -2.5670   -3.1600 Ca        1 MOL      1.730606
    170 O24         1.1790   -1.0890   -4.9320 oh        1 MOL     -0.870010
    171 H77         1.9710   -0.5660   -4.8910 ho        1 MOL      0.423363
    172 H78         0.7390   -0.8050   -5.7410 ho        1 MOL      0.423363
    173 O25        -1.7690   -1.7650   -5.1330 oh        1 MOL     -0.870010
    174 H79        -2.1050   -0.8900   -4.9510 ho        1 MOL      0.423363
    175 H80        -2.2960   -2.0700   -5.8810 ho        1 MOL      0.423363
    176 O26        -0.4230   -4.7470   -4.6320 oh        1 MOL     -0.870010
    177 H81        -1.1410   -4.9070   -5.2470 ho        1 MOL      0.423363
    178 H82        -0.1960   -5.6180   -4.3030 ho        1 MOL      0.423363
@<TRIPOS>BOND
     1    1    2 1   
     2    1    4 1   
     3    1    5 1   
     4    1    6 1   
     5    2    3 2   
     6    2    7 1   
     7    7    8 1   
     8    7   15 1   
     9    8    9 1   
    10    8   11 1   
    11    8   16 1   
    12    9   10 2   
    13    9   19 1   
    14   11   12 1   
    15   11   17 1   
    16   11   18 1   
    17   12   13 1   
    18   12   14 1   
    19   19   20 1   
    20   19   24 1   
    21   20   21 1   
    22   20   23 1   
    23   20   25 1   
    24   21   22 2   
    25   21   29 1   
    26   23   26 1   
    27   23   27 1   
    28   23   28 1   
    29   29   30 1   
    30   29   37 1   
    31   30   31 1   
    32   30   33 1   
    33   30   38 1   
    34   31   32 2   
    35   31   41 1   
    36   33   34 1   
    37   33   39 1   
    38   33   40 1   
    39   34   35 1   
    40   34   36 1   
    41   41   42 1   
    42   41   45 1   
    43   42   43 1   
    44   42   46 1   
    45   42   47 1   
    46   43   44 2   
    47   43   48 1   
    48   48   49 1   
    49   48   56 1   
    50   49   50 1   
    51   49   52 1   
    52   49   57 1   
    53   50   51 2   
    54   50   62 1   
    55   52   53 1   
    56   52   58 1   
    57   52   59 1   
    58   53   54 1   
    59   53   55 2   
    60   54   60 1   
    61   54   61 1   
    62   62   63 1   
    63   62   66 1   
    64   63   64 1   
    65   63   67 1   
    66   63   68 1   
    67   64   65 2   
    68   64   69 1   
    69   69   70 1   
    70   69   76 1   
    71   70   71 1   
    72   70   73 1   
    73   70   77 1   
    74   71   72 2   
    75   71   83 1   
    76   73   74 1   
    77   73   75 1   
    78   73   78 1   
    79   74   80 1   
    80   74   81 1   
    81   74   82 1   
    82   75   79 1   
    83   83   84 1   
    84   83   91 1   
    85   84   85 1   
    86   84   87 1   
    87   84   92 1   
    88   85   86 2   
    89   85  102 1   
    90   87   88 1   
    91   87   89 1   
    92   87   93 1   
    93   88   90 1   
    94   88   94 1   
    95   88   95 1   
    96   89   96 1   
    97   89   97 1   
    98   89   98 1   
    99   90   99 1   
   100   90  100 1   
   101   90  101 1   
   102  102  103 1   
   103  102  110 1   
   104  103  104 1   
   105  103  106 1   
   106  103  111 1   
   107  104  105 2   
   108  104  114 1   
   109  106  107 1   
   110  106  112 1   
   111  106  113 1   
   112  107  108 1   
   113  107  109 1   
   114  114  115 1   
   115  114  125 1   
   116  115  116 1   
   117  115  118 1   
   118  115  126 1   
   119  116  117 2   
   120  116  134 1   
   121  118  119 1   
   122  118  127 1   
   123  118  128 1   
   124  119  120 ar  
   125  119  121 ar  
   126  120  122 ar  
   127  120  129 1   
   128  121  123 ar  
   129  121  130 1   
   130  122  124 ar  
   131  122  131 1   
   132  123  124 ar  
   133  123  132 1   
   134  124  133 1   
   135  134  135 1   
   136  134  140 1   
   137  135  136 1   
   138  135  138 1   
   139  135  141 1   
   140  136  137 2   
   141  136  148 1   
   142  138  139 1   
   143  138  142 1   
   144  138  143 1   
   145  139  140 1   
   146  139  144 1   
   147  139  145 1   
   148  140  146 1   
   149  140  147 1   
   150  148  149 1   
   151  148  157 1   
   152  149  150 1   
   153  149  152 1   
   154  149  158 1   
   155  150  151 2   
   156  150  163 1   
   157  152  153 1   
   158  152  159 1   
   159  152  160 1   
   160  153  154 1   
   161  153  161 1   
   162  153  162 1   
   163  154  155 1   
   164  154  156 1   
   165  163  164 1   
   166  163  168 1   
   167  164  165 1   
   168  164  166 1   
   169  164  167 1   
   170  170  171 1   
   171  170  172 1   
   172  173  174 1   
   173  173  175 1   
   174  176  177 1   
   175  176  178 1   
@<TRIPOS>SUBSTRUCTURE
     1 MOL         1 TEMP              0 ****  ****    0 ROOT
