@<TRIPOS>MOLECULE
MOL
  178   175     1     0     0
SMALL
resp


@<TRIPOS>ATOM
      1 C1          4.4820   -2.4650    2.8910 c3        1 MOL     -0.337191
      2 C2          5.6130   -1.4110    2.7380 c         1 MOL      0.659464
      3 O1          5.5020   -0.5310    1.8770 o         1 MOL     -0.552123
      4 H1          4.8610   -3.3270    3.4400 hc        1 MOL      0.099504
      5 H2          3.6470   -2.0260    3.4360 hc        1 MOL      0.099504
      6 H3          4.1450   -2.7820    1.9040 hc        1 MOL      0.099504
      7 N1          6.7960   -1.5830    3.3930 n         1 MOL     -0.698016
      8 C3          8.1660   -1.0400    2.9850 c3        1 MOL      0.388268
      9 C4          8.5410   -1.4010    1.5530 c         1 MOL      0.681086
     10 O2          8.4860   -2.5880    1.2080 o         1 MOL     -0.608423
     11 C5          9.2110   -1.5420    3.9680 c3        1 MOL     -0.334327
     12 C6         10.5950   -1.0140    3.8680 c         1 MOL      0.789174
     13 O3         10.8570   -0.1710    3.0550 o         1 MOL     -0.751606
     14 O4         11.4630   -1.5450    4.5530 o         1 MOL     -0.751606
     15 H4          6.7170   -2.3510    4.0380 hn        1 MOL      0.326323
     16 H5          8.1460    0.0480    3.0630 h1        1 MOL     -0.034114
     17 H6          9.1960   -2.6300    3.8830 hc        1 MOL      0.037203
     18 H7          8.7980   -1.3620    4.9650 hc        1 MOL      0.037203
     19 N2          8.8430   -0.3860    0.7560 n         1 MOL     -0.506997
     20 C7          8.9860   -0.5140   -0.7220 c3        1 MOL      0.251138
     21 C8          7.6990   -0.6640   -1.5830 c         1 MOL      0.335752
     22 O5          7.7790   -0.8000   -2.8050 o         1 MOL     -0.536235
     23 C9          9.7560    0.7080   -1.2640 c3        1 MOL     -0.277434
     24 H8          8.7770    0.5480    1.1430 hn        1 MOL      0.262989
     25 H9          9.6090   -1.3850   -0.9420 h1        1 MOL      0.061786
     26 H10        10.6700    0.9440   -0.7190 hc        1 MOL      0.069755
     27 H11        10.1550    0.5280   -2.2610 hc        1 MOL      0.069755
     28 H12         9.1030    1.5800   -1.3080 hc        1 MOL      0.069755
     29 N3          6.5660   -0.6830   -0.9330 n         1 MOL     -0.176776
     30 C10         5.2940   -1.0500   -1.4840 c3        1 MOL      0.344392
     31 C11         4.8480   -0.3420   -2.7860 c         1 MOL      0.384502
     32 O6          4.4440   -0.9560   -3.8330 o         1 MOL     -0.412484
     33 C12         5.1020   -2.5250   -1.4920 c3        1 MOL     -0.337335
     34 C13         3.6560   -3.0280   -1.7090 c         1 MOL      0.661560
     35 O7          3.4910   -4.0760   -2.3510 o         1 MOL     -0.674573
     36 O8          2.6930   -2.3500   -1.4230 o         1 MOL     -0.674573
     37 H13         6.6170   -0.5870    0.0680 hn        1 MOL      0.061790
     38 H14         4.5860   -0.7250   -0.7170 h1        1 MOL     -0.036913
     39 H15         5.4940   -2.9210   -0.5540 hc        1 MOL      0.066034
     40 H16         5.7480   -2.8430   -2.3110 hc        1 MOL      0.066034
     41 N4          5.0650    0.9870   -2.8180 n         1 MOL     -0.325524
     42 C14         4.9410    1.8670   -4.0280 c3        1 MOL     -0.093861
     43 C15         3.5580    2.4860   -4.3620 c         1 MOL      0.485599
     44 O9          2.9900    2.3200   -5.4140 o         1 MOL     -0.492793
     45 H17         5.5350    1.4360   -2.0430 hn        1 MOL      0.227760
     46 H18         5.2230    1.2080   -4.8420 h1        1 MOL      0.077426
     47 H19         5.6340    2.6950   -3.9060 h1        1 MOL      0.077426
     48 N5          2.9220    3.0840   -3.2980 n         1 MOL     -0.423761
     49 C16         1.5550    3.6310   -3.4740 c3        1 MOL     -0.112613
     50 C17         1.2550    4.7500   -2.5150 c         1 MOL      0.631510
     51 O10         1.4660    4.6660   -1.2910 o         1 MOL     -0.515060
     52 C18         0.5880    2.4300   -3.2440 c3        1 MOL     -0.178298
     53 C19        -0.7560    2.8710   -3.6280 c         1 MOL      0.566087
     54 N6         -1.6940    2.9570   -2.7160 n         1 MOL     -0.657583
     55 O11        -1.0600    3.2210   -4.7570 o         1 MOL     -0.586116
     56 H20         3.4770    3.1150   -2.4580 hn        1 MOL      0.264580
     57 H21         1.4300    3.8640   -4.5290 h1        1 MOL      0.103325
     58 H22         0.5120    2.0690   -2.2200 hc        1 MOL      0.144176
     59 H23         0.8050    1.5890   -3.9100 hc        1 MOL      0.144176
     60 H24        -1.6070    2.8200   -1.7150 hn        1 MOL      0.313450
     61 H25        -2.6140    3.1660   -3.0710 hn        1 MOL      0.313450
     62 N7          0.6740    5.8460   -2.9540 n         1 MOL     -0.469792
     63 C20         0.2730    6.9750   -2.1910 c3        1 MOL     -0.114955
     64 C21        -0.9240    6.7340   -1.2240 c         1 MOL      0.562453
     65 O12        -1.9540    6.2500   -1.6780 o         1 MOL     -0.513507
     66 H26         0.2060    5.8560   -3.8550 hn        1 MOL      0.328350
     67 H27         0.1350    7.8760   -2.7910 h1        1 MOL      0.090742
     68 H28         1.1350    7.1830   -1.5650 h1        1 MOL      0.090742
     69 N8         -0.8160    7.0520    0.0510 n         1 MOL     -0.462563
     70 C22        -1.9230    7.0060    1.0820 c3        1 MOL     -0.189870
     71 C23        -2.0570    5.6350    1.8040 c         1 MOL      0.393199
     72 O13        -3.0230    5.4180    2.6160 o         1 MOL     -0.546792
     73 C24        -1.7530    8.2560    2.0780 c3        1 MOL      0.507139
     74 C25        -0.7770    8.1610    3.2470 c3        1 MOL     -0.256073
     75 O14        -1.2310    9.4410    1.4990 oh        1 MOL     -0.652874
     76 H29         0.0680    7.4640    0.2900 hn        1 MOL      0.248993
     77 H30        -2.7570    7.2370    0.4200 h1        1 MOL      0.162633
     78 H31        -2.7270    8.4510    2.5280 h1        1 MOL      0.011613
     79 H32        -0.2910    9.3260    1.3810 ho        1 MOL      0.381116
     80 H33        -0.4510    9.0580    3.7740 hc        1 MOL      0.058130
     81 H34        -1.1750    7.4410    3.9580 hc        1 MOL      0.058130
     82 H35         0.1870    7.7620    2.9490 hc        1 MOL      0.058130
     83 N9         -1.1730    4.6670    1.5220 n         1 MOL     -0.108548
     84 C26        -1.0350    3.3930    2.2090 c3        1 MOL     -0.070378
     85 C27        -1.0650    2.2760    1.1790 c         1 MOL      0.425706
     86 O15        -0.5670    2.5040    0.0790 o         1 MOL     -0.453715
     87 C28         0.2340    3.3700    3.0480 c3        1 MOL      0.270606
     88 C29         0.4190    4.5900    3.9610 c3        1 MOL     -0.088431
     89 C30         0.2350    2.1780    3.9570 c3        1 MOL     -0.400762
     90 C31        -0.6800    4.6640    5.0710 c3        1 MOL     -0.064960
     91 H36        -0.6310    4.9170    0.7120 hn        1 MOL      0.189952
     92 H37        -1.9030    3.2130    2.8400 h1        1 MOL      0.081949
     93 H38         1.0860    3.4550    2.3700 hc        1 MOL     -0.014181
     94 H39         0.3030    5.4180    3.2630 hc        1 MOL      0.009796
     95 H40         1.4350    4.5840    4.3590 hc        1 MOL      0.009796
     96 H41         1.1790    2.2100    4.4910 hc        1 MOL      0.101771
     97 H42        -0.5270    2.1320    4.7390 hc        1 MOL      0.101771
     98 H43         0.3400    1.2430    3.4070 hc        1 MOL      0.101771
     99 H44        -0.6460    5.6620    5.5090 hc        1 MOL      0.018532
    100 H45        -1.6740    4.4780    4.6680 hc        1 MOL      0.018532
    101 H46        -0.5420    3.9950    5.9290 hc        1 MOL      0.018532
    102 N10        -1.6860    1.1550    1.4990 n         1 MOL     -0.478095
    103 C32        -1.6380   -0.0690    0.6120 c3        1 MOL      0.299736
    104 C33        -3.0870   -0.5380    0.2550 c         1 MOL      0.280442
    105 O16        -3.3780   -1.7360    0.0130 o         1 MOL     -0.361359
    106 C34        -0.8030   -1.2110    1.3250 c3        1 MOL     -0.159667
    107 C35        -0.4550   -2.3690    0.3930 c         1 MOL      0.609559
    108 O17        -0.4080   -2.2140   -0.8500 o         1 MOL     -0.710480
    109 O18         0.0710   -3.4210    0.8400 o         1 MOL     -0.710480
    110 H47        -2.1450    1.1430    2.3890 hn        1 MOL      0.274928
    111 H48        -1.0530    0.1090   -0.2880 h1        1 MOL      0.049234
    112 H49        -1.2800   -1.5940    2.2230 hc        1 MOL      0.044271
    113 H50         0.1390   -0.7340    1.6140 hc        1 MOL      0.044271
    114 N11        -4.1030    0.3610    0.3500 n         1 MOL     -0.386788
    115 C36        -5.4860    0.0960   -0.1430 c3        1 MOL      0.060254
    116 C37        -6.1890   -1.1870    0.4930 c         1 MOL      0.315223
    117 O19        -6.0370   -1.3650    1.6850 o         1 MOL     -0.493535
    118 C38        -6.3190    1.3900    0.1870 c3        1 MOL     -0.171548
    119 C39        -7.7420    1.2630   -0.2520 ca        1 MOL      0.061089
    120 C40        -8.1000    1.8050   -1.5690 ca        1 MOL     -0.151762
    121 C41        -8.6690    0.6350    0.5020 ca        1 MOL     -0.151762
    122 C42        -9.4620    1.9160   -1.9360 ca        1 MOL     -0.130018
    123 C43       -10.0890    0.6190    0.0640 ca        1 MOL     -0.130018
    124 C44       -10.4030    1.2940   -1.1400 ca        1 MOL     -0.098347
    125 H51        -3.9360    1.2880    0.7360 hn        1 MOL      0.246556
    126 H52        -5.3230    0.0150   -1.2130 h1        1 MOL      0.070536
    127 H53        -5.9080    2.2780   -0.2870 hc        1 MOL      0.093799
    128 H54        -6.2440    1.6330    1.2490 hc        1 MOL      0.093799
    129 H55        -7.3650    2.2840   -2.1820 ha        1 MOL      0.126414
    130 H56        -8.4410    0.2280    1.4730 ha        1 MOL      0.126414
    131 H57        -9.7500    2.5210   -2.7820 ha        1 MOL      0.119494
    132 H58       -10.8580    0.2460    0.7130 ha        1 MOL      0.119494
    133 H59       -11.4390    1.5110   -1.3700 ha        1 MOL      0.087606
    134 N12        -6.8980   -2.0690   -0.2640 n         1 MOL      0.084051
    135 C45        -7.6990   -3.1960    0.2170 c3        1 MOL     -0.017073
    136 C46        -6.8470   -4.0110    1.2340 c         1 MOL      0.367418
    137 O20        -7.3990   -4.4520    2.2220 o         1 MOL     -0.513406
    138 C47        -8.0470   -3.9340   -1.0130 c3        1 MOL      0.140770
    139 C48        -8.0000   -3.0080   -2.2110 c3        1 MOL     -0.144314
    140 C49        -7.0600   -1.9200   -1.6940 c3        1 MOL      0.092172
    141 H60        -8.6000   -2.8670    0.7240 h1        1 MOL      0.032941
    142 H61        -7.3160   -4.7140   -1.1920 hc        1 MOL     -0.022825
    143 H62        -9.0050   -4.4350   -0.9080 hc        1 MOL     -0.022825
    144 H63        -7.6210   -3.5360   -3.0880 hc        1 MOL      0.038621
    145 H64        -8.9960   -2.6060   -2.3980 hc        1 MOL      0.038621
    146 H65        -6.0550   -2.0010   -2.1140 h1        1 MOL     -0.010998
    147 H66        -7.4420   -0.9610   -2.0360 h1        1 MOL     -0.010998
    148 N13        -5.5730   -4.2040    0.9670 n         1 MOL     -0.240845
    149 C50        -4.6880   -4.9560    1.8350 c3        1 MOL     -0.098391
    150 C51        -4.4160   -4.3270    3.1480 c         1 MOL      0.503892
    151 O21        -4.4990   -4.9070    4.1970 o         1 MOL     -0.562926
    152 C52        -3.3300   -5.2030    1.2130 c3        1 MOL      0.024525
    153 C53        -3.4210   -5.6200   -0.3060 c3        1 MOL      0.078905
    154 C54        -2.0530   -5.6180   -1.0280 c         1 MOL      0.622025
    155 O22        -1.1790   -6.4510   -0.6850 o         1 MOL     -0.741362
    156 O23        -1.8610   -4.8470   -1.9630 o         1 MOL     -0.741362
    157 H67        -5.2880   -3.8440    0.0760 hn        1 MOL      0.194816
    158 H68        -5.1930   -5.8960    2.0150 h1        1 MOL      0.098652
    159 H69        -2.8350   -6.0240    1.7400 hc        1 MOL     -0.011237
    160 H70        -2.7730   -4.2670    1.2770 hc        1 MOL     -0.011237
    161 H71        -4.0470   -4.8570   -0.7570 hc        1 MOL     -0.034972
    162 H72        -3.8840   -6.5940   -0.4850 hc        1 MOL     -0.034972
    163 N14        -4.2290   -2.9890    3.1860 n         1 MOL     -0.094496
    164 C55        -4.2200   -2.2200    4.4200 c3        1 MOL     -0.400507
    165 H73        -4.6200   -1.2240    4.2290 h1        1 MOL      0.126812
    166 H74        -4.8370   -2.7210    5.1660 h1        1 MOL      0.126812
    167 H75        -3.1980   -2.1360    4.7890 h1        1 MOL      0.126812
    168 H76        -4.1390   -2.5110    2.3050 hn        1 MOL      0.256163
    169 Ca1         0.8010   -4.4230   -1.4920 Ca        1 MOL      1.765056
    170 O24         1.7100   -6.3560   -3.2050 oh        1 MOL     -0.858726
    171 H77         1.3990   -7.2490   -3.0910 ho        1 MOL      0.417469
    172 H78         1.9310   -6.2900   -4.1340 ho        1 MOL      0.417469
    173 O25         2.3770   -5.8540    0.2170 oh        1 MOL     -0.858726
    174 H79         2.6410   -5.5990    1.0960 ho        1 MOL      0.417469
    175 H80         2.7800   -6.7090    0.0830 ho        1 MOL      0.417469
    176 O26         0.3850   -3.7620   -4.1270 oh        1 MOL     -0.858726
    177 H81        -0.4060   -4.0430   -4.5930 ho        1 MOL      0.417469
    178 H82         1.0070   -3.5700   -4.8140 ho        1 MOL      0.417469
@<TRIPOS>BOND
     1    1    2 1   
     2    1    4 1   
     3    1    5 1   
     4    1    6 1   
     5    2    3 2   
     6    2    7 1   
     7    7    8 1   
     8    7   15 1   
     9    8    9 1   
    10    8   11 1   
    11    8   16 1   
    12    9   10 2   
    13    9   19 1   
    14   11   12 1   
    15   11   17 1   
    16   11   18 1   
    17   12   13 1   
    18   12   14 1   
    19   19   20 1   
    20   19   24 1   
    21   20   21 1   
    22   20   23 1   
    23   20   25 1   
    24   21   22 2   
    25   21   29 1   
    26   23   26 1   
    27   23   27 1   
    28   23   28 1   
    29   29   30 1   
    30   29   37 1   
    31   30   31 1   
    32   30   33 1   
    33   30   38 1   
    34   31   32 2   
    35   31   41 1   
    36   33   34 1   
    37   33   39 1   
    38   33   40 1   
    39   34   35 1   
    40   34   36 1   
    41   41   42 1   
    42   41   45 1   
    43   42   43 1   
    44   42   46 1   
    45   42   47 1   
    46   43   44 2   
    47   43   48 1   
    48   48   49 1   
    49   48   56 1   
    50   49   50 1   
    51   49   52 1   
    52   49   57 1   
    53   50   51 2   
    54   50   62 1   
    55   52   53 1   
    56   52   58 1   
    57   52   59 1   
    58   53   54 1   
    59   53   55 2   
    60   54   60 1   
    61   54   61 1   
    62   62   63 1   
    63   62   66 1   
    64   63   64 1   
    65   63   67 1   
    66   63   68 1   
    67   64   65 2   
    68   64   69 1   
    69   69   70 1   
    70   69   76 1   
    71   70   71 1   
    72   70   73 1   
    73   70   77 1   
    74   71   72 2   
    75   71   83 1   
    76   73   74 1   
    77   73   75 1   
    78   73   78 1   
    79   74   80 1   
    80   74   81 1   
    81   74   82 1   
    82   75   79 1   
    83   83   84 1   
    84   83   91 1   
    85   84   85 1   
    86   84   87 1   
    87   84   92 1   
    88   85   86 2   
    89   85  102 1   
    90   87   88 1   
    91   87   89 1   
    92   87   93 1   
    93   88   90 1   
    94   88   94 1   
    95   88   95 1   
    96   89   96 1   
    97   89   97 1   
    98   89   98 1   
    99   90   99 1   
   100   90  100 1   
   101   90  101 1   
   102  102  103 1   
   103  102  110 1   
   104  103  104 1   
   105  103  106 1   
   106  103  111 1   
   107  104  105 2   
   108  104  114 1   
   109  106  107 1   
   110  106  112 1   
   111  106  113 1   
   112  107  108 1   
   113  107  109 1   
   114  114  115 1   
   115  114  125 1   
   116  115  116 1   
   117  115  118 1   
   118  115  126 1   
   119  116  117 2   
   120  116  134 1   
   121  118  119 1   
   122  118  127 1   
   123  118  128 1   
   124  119  120 ar  
   125  119  121 ar  
   126  120  122 ar  
   127  120  129 1   
   128  121  123 ar  
   129  121  130 1   
   130  122  124 ar  
   131  122  131 1   
   132  123  124 ar  
   133  123  132 1   
   134  124  133 1   
   135  134  135 1   
   136  134  140 1   
   137  135  136 1   
   138  135  138 1   
   139  135  141 1   
   140  136  137 2   
   141  136  148 1   
   142  138  139 1   
   143  138  142 1   
   144  138  143 1   
   145  139  140 1   
   146  139  144 1   
   147  139  145 1   
   148  140  146 1   
   149  140  147 1   
   150  148  149 1   
   151  148  157 1   
   152  149  150 1   
   153  149  152 1   
   154  149  158 1   
   155  150  151 2   
   156  150  163 1   
   157  152  153 1   
   158  152  159 1   
   159  152  160 1   
   160  153  154 1   
   161  153  161 1   
   162  153  162 1   
   163  154  155 1   
   164  154  156 1   
   165  163  164 1   
   166  163  168 1   
   167  164  165 1   
   168  164  166 1   
   169  164  167 1   
   170  170  171 1   
   171  170  172 1   
   172  173  174 1   
   173  173  175 1   
   174  176  177 1   
   175  176  178 1   
@<TRIPOS>SUBSTRUCTURE
     1 MOL         1 TEMP              0 ****  ****    0 ROOT
