@<TRIPOS>MOLECULE
MOL
  182   178     1     0     0
SMALL
resp


@<TRIPOS>ATOM
      1 C1          0.2340   -4.2090    6.0200 c3        1 MOL     -0.392844
      2 C2          0.3330   -3.7830    4.5650 c         1 MOL      0.808768
      3 O1         -0.7030   -3.5200    3.8960 o         1 MOL     -0.637376
      4 H1         -0.8100   -4.1920    6.3330 hc        1 MOL      0.107425
      5 H2          0.6300   -5.2180    6.1320 hc        1 MOL      0.107425
      6 H3          0.8100   -3.5220    6.6400 hc        1 MOL      0.107425
      7 N1          1.5680   -3.7390    4.0380 n         1 MOL     -0.592460
      8 C3          1.8770   -3.3390    2.6320 c3        1 MOL     -0.042161
      9 C4          1.9960   -4.5900    1.7160 c         1 MOL      0.483406
     10 O2          2.3860   -5.6810    2.2440 o         1 MOL     -0.550492
     11 C5          3.2380   -2.6020    2.5680 c3        1 MOL      0.017989
     12 C6          3.3950   -1.7450    1.3060 c         1 MOL      0.272763
     13 O3          4.2570   -0.8360    1.3320 o         1 MOL     -0.591536
     14 O4          2.6700   -1.8840    0.3480 o         1 MOL     -0.591536
     15 H4          2.3850   -4.0040    4.5780 hn        1 MOL      0.322817
     16 H5          1.1690   -2.5870    2.2750 h1        1 MOL      0.060757
     17 H6          4.1790   -3.1060    2.7830 hc        1 MOL      0.072434
     18 H7          3.3330   -1.9320    3.4290 hc        1 MOL      0.072434
     19 N2          1.8240   -4.4970    0.4250 n         1 MOL     -0.068021
     20 C7          1.9340   -5.5390   -0.5330 c3        1 MOL     -0.082680
     21 C8          3.2730   -5.4340   -1.3160 c         1 MOL      0.433972
     22 O5          3.8140   -6.4160   -1.8120 o         1 MOL     -0.536980
     23 C9          0.6620   -5.6580   -1.4320 c3        1 MOL     -0.135276
     24 C10         0.3130   -4.2780   -2.0400 c3        1 MOL      0.142481
     25 C11        -1.0430   -4.5030   -2.7150 c3        1 MOL     -0.136123
     26 C12        -1.3830   -3.2550   -3.6090 c3        1 MOL      0.274651
     27 N3         -2.6100   -3.5540   -4.5150 n4        1 MOL     -0.317530
     28 H8          1.7080   -3.5650    0.0560 hn        1 MOL     -0.018266
     29 H9          1.9680   -6.4050    0.1350 h1        1 MOL      0.113761
     30 H10        -0.1790   -5.9500   -0.8040 hc        1 MOL      0.062956
     31 H11         0.7980   -6.3500   -2.2680 hc        1 MOL      0.062956
     32 H12         1.0480   -3.9450   -2.7690 hc        1 MOL      0.043691
     33 H13         0.0820   -3.5390   -1.2690 hc        1 MOL      0.043691
     34 H14        -1.8620   -4.6490   -2.0210 hc        1 MOL      0.031143
     35 H15        -0.9150   -5.3860   -3.3340 hc        1 MOL      0.031143
     36 H16        -0.5850   -2.9620   -4.2920 hx        1 MOL     -0.020502
     37 H17        -1.6390   -2.3980   -2.9990 hx        1 MOL     -0.020502
     38 H18        -2.6810   -2.7720   -5.1610 hn        1 MOL      0.257743
     39 H19        -2.3400   -4.3270   -5.0900 hn        1 MOL      0.257743
     40 H20        -3.4860   -3.6740   -4.0250 hn        1 MOL      0.257743
     41 N4          3.8370   -4.2450   -1.4000 n         1 MOL     -0.068825
     42 C13         5.1650   -3.9590   -2.0710 c3        1 MOL     -0.009827
     43 C14         6.3630   -3.5220   -1.2210 c         1 MOL      0.488123
     44 O6          7.4750   -3.8780   -1.5470 o         1 MOL     -0.540094
     45 C15         4.9380   -2.8640   -3.1270 c3        1 MOL     -0.243234
     46 C16         4.2310   -1.7120   -2.3990 c         1 MOL      0.541937
     47 O7          2.9880   -1.7490   -2.4720 o         1 MOL     -0.632017
     48 O8          4.8550   -0.8810   -1.7280 o         1 MOL     -0.632017
     49 H21         3.3140   -3.4200   -1.1470 hn        1 MOL      0.016433
     50 H22         5.5110   -4.8830   -2.5460 h1        1 MOL      0.102126
     51 H23         4.2490   -3.1940   -3.8970 hc        1 MOL      0.092428
     52 H24         5.8640   -2.5680   -3.6250 hc        1 MOL      0.092428
     53 N5          6.1970   -2.8920   -0.1060 n         1 MOL     -0.162396
     54 C17         7.1520   -2.4680    0.9540 c3        1 MOL     -0.155014
     55 C18         7.6220   -1.0340    0.8070 c         1 MOL      0.551812
     56 O9          8.4690   -0.5580    1.5570 o         1 MOL     -0.587885
     57 H25         5.3170   -2.4380    0.0910 hn        1 MOL      0.110545
     58 H26         8.0690   -3.0360    0.8070 h1        1 MOL      0.112600
     59 H27         6.8010   -2.5900    1.9790 h1        1 MOL      0.112600
     60 N6          7.0980   -0.2240   -0.0870 n         1 MOL     -0.167247
     61 C19         7.3740    1.2050   -0.2300 c3        1 MOL      0.011117
     62 C20         6.1770    2.1120   -0.3590 c         1 MOL      0.622059
     63 O10         5.0430    1.6110   -0.3890 o         1 MOL     -0.538366
     64 C21         8.4450    1.3510   -1.3090 c3        1 MOL     -0.422356
     65 C22         8.0220    1.1060   -2.7670 c         1 MOL      0.592717
     66 N7          6.8180    0.6350   -3.1300 n         1 MOL     -0.679827
     67 O11         8.8650    1.3280   -3.6540 o         1 MOL     -0.554220
     68 H28         6.4270   -0.6660   -0.6960 hn        1 MOL      0.174885
     69 H29         7.8280    1.5630    0.6930 h1        1 MOL      0.094440
     70 H30         9.2670    0.6650   -1.0990 hc        1 MOL      0.152576
     71 H31         8.7560    2.3940   -1.3070 hc        1 MOL      0.152576
     72 H32         6.1280    0.4080   -2.4280 hn        1 MOL      0.328882
     73 H33         6.6930    0.5140   -4.1160 hn        1 MOL      0.328882
     74 N8          6.3510    3.4460   -0.3430 n         1 MOL     -0.531048
     75 C23         5.4040    4.4530   -0.6070 c3        1 MOL     -0.048412
     76 C24         4.3250    4.5080    0.5250 c         1 MOL      0.527304
     77 O12         4.6290    4.1830    1.6820 o         1 MOL     -0.511880
     78 H34         7.1880    3.8580    0.0490 hn        1 MOL      0.348154
     79 H35         4.9520    4.1690   -1.5520 h1        1 MOL      0.079939
     80 H36         5.7780    5.4670   -0.7780 h1        1 MOL      0.079939
     81 N9          3.1050    4.7550    0.1660 n         1 MOL     -0.578784
     82 C25         1.9860    4.6300    1.1080 c3        1 MOL      0.472300
     83 C26         1.8600    3.1380    1.5720 c         1 MOL      0.615873
     84 O13         2.4350    2.2410    0.9490 o         1 MOL     -0.606393
     85 C27         0.7200    5.0810    0.4650 c3        1 MOL     -0.228617
     86 C28         0.7660    6.5130   -0.1350 ca        1 MOL      0.208000
     87 C29         0.3640    6.6830   -1.4230 ca        1 MOL     -0.280159
     88 C30         1.3530    7.5520    0.5590 ca        1 MOL     -0.280159
     89 C31         0.2800    7.9970   -1.9590 ca        1 MOL     -0.137591
     90 C32         1.2840    8.8530    0.0250 ca        1 MOL     -0.137591
     91 C33         0.7290    9.1080   -1.2670 ca        1 MOL      0.210439
     92 O14         0.7150   10.4290   -1.7190 oh        1 MOL     -0.436823
     93 H37         2.9480    5.0630   -0.7910 hn        1 MOL      0.279145
     94 H38         2.2070    5.2470    1.9800 h1        1 MOL     -0.013414
     95 H39        -0.0030    5.1340    1.2830 hc        1 MOL      0.039308
     96 H40         0.3720    4.3290   -0.2300 hc        1 MOL      0.039308
     97 H41         0.1410    5.7580   -1.9530 ha        1 MOL      0.152658
     98 H42         1.6590    7.4940    1.6000 ha        1 MOL      0.152658
     99 H43        -0.1830    8.2180   -2.9130 ha        1 MOL      0.132831
    100 H44         1.6550    9.6720    0.6300 ha        1 MOL      0.132831
    101 H45         0.2700   10.5430   -2.5640 ho        1 MOL      0.355837
    102 N10         1.0500    2.8840    2.6230 n         1 MOL     -0.856349
    103 C34         0.6160    1.6360    3.2120 c3        1 MOL      0.496363
    104 C35         0.0450    0.6810    2.1330 c         1 MOL      0.311880
    105 O15         0.8530    0.2700    1.2670 o         1 MOL     -0.271835
    106 C36         1.8420    1.0040    4.0010 c3        1 MOL      0.197319
    107 C37         1.3800   -0.3720    4.6390 c3        1 MOL     -0.078295
    108 C38         2.4430    1.9040    5.0920 c3        1 MOL     -0.523189
    109 C39         0.1240   -0.2390    5.5800 c3        1 MOL     -0.012756
    110 H46         0.7170    3.6920    3.1300 hn        1 MOL      0.331243
    111 H47        -0.1990    1.7890    3.9190 h1        1 MOL     -0.028782
    112 H48         2.5800    0.8510    3.2070 hc        1 MOL      0.056768
    113 H49         2.2190   -0.7930    5.1900 hc        1 MOL      0.014543
    114 H50         1.0670   -0.9410    3.7660 hc        1 MOL      0.014543
    115 H51         3.2590    1.3400    5.5350 hc        1 MOL      0.138745
    116 H52         2.9930    2.6870    4.5700 hc        1 MOL      0.138745
    117 H53         1.6390    2.1730    5.7850 hc        1 MOL      0.138745
    118 H54         0.2310    0.5810    6.2940 hc        1 MOL     -0.006041
    119 H55        -0.7170   -0.0090    4.9340 hc        1 MOL     -0.006041
    120 H56        -0.1330   -1.1940    6.0340 hc        1 MOL     -0.006041
    121 N11        -1.2860    0.3990    2.1630 n         1 MOL     -0.500813
    122 C40        -1.9740   -0.2910    1.0170 c3        1 MOL      0.123361
    123 C41        -3.4340    0.0460    0.9110 c         1 MOL      0.562099
    124 O16        -4.0970   -0.0190    1.9230 o         1 MOL     -0.490834
    125 C42        -1.6330   -1.8000    0.9570 c3        1 MOL     -0.056636
    126 O17        -1.9860   -2.3380   -0.3240 oh        1 MOL     -0.585368
    127 H57        -1.8450    0.8990    2.8510 hn        1 MOL      0.304303
    128 H58        -1.4860    0.0560    0.1000 h1        1 MOL     -0.029143
    129 H59        -2.1130   -2.2410    1.8230 h1        1 MOL      0.161876
    130 H60        -0.5470   -1.9340    0.9310 h1        1 MOL      0.161876
    131 H61        -2.9330   -2.4820   -0.3930 ho        1 MOL      0.399060
    132 N12        -3.8990    0.2290   -0.3420 n         1 MOL     -0.613865
    133 C43        -5.3150    0.1690   -0.5950 c3        1 MOL      0.255604
    134 C44        -5.6530   -0.3360   -2.0040 c         1 MOL      0.481922
    135 O18        -4.7980   -0.2800   -2.9380 o         1 MOL     -0.578055
    136 C45        -5.8470    1.5990   -0.3290 c3        1 MOL      0.076598
    137 H62        -3.3180    0.3200   -1.1650 hn        1 MOL      0.275604
    138 H63        -5.8310   -0.4700    0.1220 h1        1 MOL      0.035691
    139 H64        -5.4360    2.3790   -0.9770 hc        1 MOL     -0.013253
    140 H65        -6.9260    1.6220   -0.4920 hc        1 MOL     -0.013253
    141 H66        -5.7870    1.9460    0.6950 hc        1 MOL     -0.013253
    142 N13        -6.8720   -0.7600   -2.3550 n         1 MOL     -0.568283
    143 C46        -8.0620   -0.8960   -1.4460 c3        1 MOL      0.223324
    144 C47        -9.1950    0.1450   -1.9090 c         1 MOL      0.531404
    145 O19        -9.1330    0.5980   -3.0570 o         1 MOL     -0.538146
    146 C48        -8.5320   -2.3530   -1.4600 c3        1 MOL     -0.333728
    147 H67        -6.9220   -1.0230   -3.3350 hn        1 MOL      0.353296
    148 H68        -7.7870   -0.5850   -0.4360 h1        1 MOL      0.039585
    149 H69        -7.7720   -2.9990   -1.0330 hc        1 MOL      0.102317
    150 H70        -9.4750   -2.4560   -0.9040 hc        1 MOL      0.102317
    151 H71        -8.6770   -2.7160   -2.4690 hc        1 MOL      0.102317
    152 N14       -10.1650    0.5980   -1.0560 n         1 MOL     -0.448251
    153 C49       -10.4860    0.2080    0.3160 c3        1 MOL     -0.021269
    154 C50        -9.9620    1.2540    1.3590 c         1 MOL      0.351455
    155 O20        -9.8590    0.9010    2.5260 o         1 MOL     -0.481899
    156 C51       -11.9670   -0.1420    0.4620 c3        1 MOL      0.044790
    157 C52       -12.4330   -1.3830   -0.3140 c3        1 MOL     -0.221221
    158 C53       -13.8950   -1.2840   -0.6470 c         1 MOL      0.686109
    159 O21       -14.7490   -1.5350    0.2340 o         1 MOL     -0.653815
    160 O22       -14.2320   -0.9910   -1.7860 o         1 MOL     -0.653815
    161 H72       -10.7600    1.3560   -1.3470 hn        1 MOL      0.318854
    162 H73        -9.9210   -0.6700    0.6370 h1        1 MOL      0.088444
    163 H74       -12.4530    0.6640   -0.0960 hc        1 MOL      0.037463
    164 H75       -12.4050   -0.1840    1.4600 hc        1 MOL      0.037463
    165 H76       -12.3780   -2.2010    0.3970 hc        1 MOL      0.043874
    166 H77       -11.8700   -1.5490   -1.2350 hc        1 MOL      0.043874
    167 N15        -9.6030    2.4910    0.9680 n         1 MOL     -0.261275
    168 C54        -8.8100    3.5040    1.7940 c3        1 MOL     -0.180000
    169 H78        -8.5060    3.0450    2.7350 h1        1 MOL      0.106226
    170 H79        -7.9250    3.8140    1.2380 h1        1 MOL      0.106226
    171 H80        -9.4340    4.3740    1.9990 h1        1 MOL      0.106226
    172 H81        -9.7290    2.8230    0.0230 hn        1 MOL      0.215839
    173 Ca1         2.7610    0.4210   -0.8590 Ca        1 MOL      1.751153
    174 O23         3.3360    1.6080   -3.0930 oh        1 MOL     -0.846672
    175 H82         4.1530    1.9920   -3.4020 ho        1 MOL      0.413592
    176 H83         2.8550    1.3720   -3.8840 ho        1 MOL      0.413592
    177 O24         0.4100   -0.7950   -1.5880 oh        1 MOL     -0.846672
    178 H84         0.0360   -1.1430   -0.7740 ho        1 MOL      0.413592
    179 H85        -0.3360   -0.4350   -2.0650 ho        1 MOL      0.413592
    180 O25         0.7810    2.0320   -1.7840 oh        1 MOL     -0.846672
    181 H86         0.8150    1.8440   -2.7190 ho        1 MOL      0.413592
    182 H87        -0.1320    2.2420   -1.6130 ho        1 MOL      0.413592
@<TRIPOS>BOND
     1    1    2 1   
     2    1    4 1   
     3    1    5 1   
     4    1    6 1   
     5    2    3 2   
     6    2    7 1   
     7    7    8 1   
     8    7   15 1   
     9    8    9 1   
    10    8   11 1   
    11    8   16 1   
    12    9   10 2   
    13    9   19 1   
    14   11   12 1   
    15   11   17 1   
    16   11   18 1   
    17   12   13 1   
    18   12   14 1   
    19   19   20 1   
    20   19   28 1   
    21   20   21 1   
    22   20   23 1   
    23   20   29 1   
    24   21   22 2   
    25   21   41 1   
    26   23   24 1   
    27   23   30 1   
    28   23   31 1   
    29   24   25 1   
    30   24   32 1   
    31   24   33 1   
    32   25   26 1   
    33   25   34 1   
    34   25   35 1   
    35   26   27 1   
    36   26   36 1   
    37   26   37 1   
    38   27   38 1   
    39   27   39 1   
    40   27   40 1   
    41   41   42 1   
    42   41   49 1   
    43   42   43 1   
    44   42   45 1   
    45   42   50 1   
    46   43   44 2   
    47   43   53 1   
    48   45   46 1   
    49   45   51 1   
    50   45   52 1   
    51   46   47 1   
    52   46   48 1   
    53   53   54 1   
    54   53   57 1   
    55   54   55 1   
    56   54   58 1   
    57   54   59 1   
    58   55   56 2   
    59   55   60 1   
    60   60   61 1   
    61   60   68 1   
    62   61   62 1   
    63   61   64 1   
    64   61   69 1   
    65   62   63 2   
    66   62   74 1   
    67   64   65 1   
    68   64   70 1   
    69   64   71 1   
    70   65   66 1   
    71   65   67 2   
    72   66   72 1   
    73   66   73 1   
    74   74   75 1   
    75   74   78 1   
    76   75   76 1   
    77   75   79 1   
    78   75   80 1   
    79   76   77 2   
    80   76   81 1   
    81   81   82 1   
    82   81   93 1   
    83   82   83 1   
    84   82   85 1   
    85   82   94 1   
    86   83   84 2   
    87   83  102 1   
    88   85   86 1   
    89   85   95 1   
    90   85   96 1   
    91   86   87 ar  
    92   86   88 ar  
    93   87   89 ar  
    94   87   97 1   
    95   88   90 ar  
    96   88   98 1   
    97   89   91 ar  
    98   89   99 1   
    99   90   91 ar  
   100   90  100 1   
   101   91   92 1   
   102   92  101 1   
   103  102  103 1   
   104  102  110 1   
   105  103  104 1   
   106  103  106 1   
   107  103  111 1   
   108  104  105 2   
   109  104  121 1   
   110  106  107 1   
   111  106  108 1   
   112  106  112 1   
   113  107  109 1   
   114  107  113 1   
   115  107  114 1   
   116  108  115 1   
   117  108  116 1   
   118  108  117 1   
   119  109  118 1   
   120  109  119 1   
   121  109  120 1   
   122  121  122 1   
   123  121  127 1   
   124  122  123 1   
   125  122  125 1   
   126  122  128 1   
   127  123  124 2   
   128  123  132 1   
   129  125  126 1   
   130  125  129 1   
   131  125  130 1   
   132  126  131 1   
   133  132  133 1   
   134  132  137 1   
   135  133  134 1   
   136  133  136 1   
   137  133  138 1   
   138  134  135 2   
   139  134  142 1   
   140  136  139 1   
   141  136  140 1   
   142  136  141 1   
   143  142  143 1   
   144  142  147 1   
   145  143  144 1   
   146  143  146 1   
   147  143  148 1   
   148  144  145 2   
   149  144  152 1   
   150  146  149 1   
   151  146  150 1   
   152  146  151 1   
   153  152  153 1   
   154  152  161 1   
   155  153  154 1   
   156  153  156 1   
   157  153  162 1   
   158  154  155 2   
   159  154  167 1   
   160  156  157 1   
   161  156  163 1   
   162  156  164 1   
   163  157  158 1   
   164  157  165 1   
   165  157  166 1   
   166  158  159 1   
   167  158  160 1   
   168  167  168 1   
   169  167  172 1   
   170  168  169 1   
   171  168  170 1   
   172  168  171 1   
   173  174  175 1   
   174  174  176 1   
   175  177  178 1   
   176  177  179 1   
   177  180  181 1   
   178  180  182 1   
@<TRIPOS>SUBSTRUCTURE
     1 MOL         1 TEMP              0 ****  ****    0 ROOT
