@<TRIPOS>MOLECULE
MOL
  181   177     1     0     0
SMALL
resp


@<TRIPOS>ATOM
      1 C1        -12.3000   -6.0270    1.9130 c3        1 MOL     -0.366195
      2 C2        -11.6990   -4.6770    2.4130 c         1 MOL      0.559871
      3 O1        -12.0880   -4.1230    3.4480 o         1 MOL     -0.562155
      4 H1        -13.1960   -5.8300    1.3240 hc        1 MOL      0.096705
      5 H2        -11.5660   -6.5450    1.2950 hc        1 MOL      0.096705
      6 H3        -12.5590   -6.6490    2.7700 hc        1 MOL      0.096705
      7 N1        -10.6580   -4.2110    1.7040 n         1 MOL     -0.338357
      8 C3         -9.9360   -4.7580    0.4660 c3        1 MOL     -0.034538
      9 C4        -10.4480   -4.0850   -0.7890 c         1 MOL      0.444752
     10 O2        -10.0250   -4.4620   -1.8860 o         1 MOL     -0.548190
     11 C5         -8.3620   -4.5050    0.6020 c3        1 MOL     -0.222155
     12 C6         -7.9770   -2.9980    0.7400 c         1 MOL      0.866679
     13 O3         -6.8000   -2.6650    0.8340 o         1 MOL     -0.798508
     14 O4         -8.8950   -2.1200    0.6700 o         1 MOL     -0.798508
     15 H4        -10.1490   -3.3730    1.9450 hn        1 MOL      0.204207
     16 H5         -9.9630   -5.8400    0.4020 h1        1 MOL      0.116414
     17 H6         -7.8700   -4.9520   -0.2620 hc        1 MOL      0.080352
     18 H7         -8.0160   -4.9490    1.5320 hc        1 MOL      0.080352
     19 N2        -11.3770   -3.1280   -0.7800 n         1 MOL     -0.343557
     20 C7        -12.0060   -2.7660   -2.1110 c3        1 MOL      0.112878
     21 C8        -11.1330   -1.7800   -2.9240 c         1 MOL      0.532666
     22 O5        -11.3010   -1.5630   -4.1490 o         1 MOL     -0.566943
     23 C9        -13.4400   -2.3280   -1.8800 c3        1 MOL     -0.479452
     24 H8        -11.7170   -2.7250    0.0770 hn        1 MOL      0.295085
     25 H9        -11.9860   -3.6210   -2.7840 h1        1 MOL      0.092385
     26 H10       -13.7730   -2.0440   -2.8760 hc        1 MOL      0.139050
     27 H11       -13.8410   -3.1760   -1.3170 hc        1 MOL      0.139050
     28 H12       -13.6090   -1.3950   -1.3520 hc        1 MOL      0.139050
     29 N3        -10.1040   -1.1260   -2.3140 n         1 MOL     -0.310454
     30 C10        -9.5120    0.1140   -2.8140 c3        1 MOL     -0.004638
     31 C11        -7.9980    0.1750   -2.6570 c         1 MOL      0.492193
     32 O6         -7.4440   -0.3510   -1.7340 o         1 MOL     -0.476888
     33 C12       -10.1930    1.3120   -2.1430 c3        1 MOL      0.048571
     34 C13        -9.9790    1.3930   -0.6280 c         1 MOL      0.641017
     35 O7        -10.9370    1.1360    0.1710 o         1 MOL     -0.726271
     36 O8         -8.8430    1.7380   -0.2400 o         1 MOL     -0.726271
     37 H13        -9.6820   -1.5020   -1.4750 hn        1 MOL      0.201746
     38 H14        -9.6190    0.2270   -3.8930 h1        1 MOL      0.051902
     39 H15       -11.2370    1.3220   -2.4400 hc        1 MOL     -0.007208
     40 H16        -9.7920    2.1910   -2.6310 hc        1 MOL     -0.007208
     41 N4         -7.3200    0.8640   -3.5710 n         1 MOL     -0.458034
     42 C14        -5.9050    1.2380   -3.4640 c3        1 MOL     -0.059835
     43 C15        -5.6660    2.4170   -2.5290 c         1 MOL      0.594932
     44 O9         -6.5640    3.2380   -2.3690 o         1 MOL     -0.480284
     45 H17        -7.8970    1.3180   -4.2570 hn        1 MOL      0.318824
     46 H18        -5.4460    1.5100   -4.4190 h1        1 MOL      0.093070
     47 H19        -5.3270    0.4120   -3.0420 h1        1 MOL      0.093070
     48 N5         -4.4210    2.6590   -2.0200 n         1 MOL     -0.541580
     49 C16        -4.0950    3.9020   -1.3050 c3        1 MOL     -0.042272
     50 C17        -2.6210    3.9990   -0.9420 c         1 MOL      0.721630
     51 O10        -1.9870    2.9600   -0.7330 o         1 MOL     -0.526337
     52 C18        -4.8070    4.0820    0.0830 c3        1 MOL     -0.405112
     53 C19        -4.8080    2.7980    0.9370 c         1 MOL      0.766969
     54 N6         -3.7560    2.2910    1.3690 n         1 MOL     -0.663577
     55 O11        -5.8470    2.2280    1.1870 o         1 MOL     -0.655571
     56 H20        -3.7510    1.9000   -1.9420 hn        1 MOL      0.272055
     57 H21        -4.3660    4.7540   -1.9310 h1        1 MOL      0.121881
     58 H22        -5.7730    4.5420   -0.1040 hc        1 MOL      0.140432
     59 H23        -4.3400    4.8360    0.7030 hc        1 MOL      0.140432
     60 H24        -2.9180    2.8080    1.1320 hn        1 MOL      0.335921
     61 H25        -3.7900    1.4750    1.9690 hn        1 MOL      0.335921
     62 N7         -2.1210    5.2170   -0.6380 n         1 MOL     -0.718606
     63 C20        -0.8480    5.4120   -0.0070 c3        1 MOL      0.095188
     64 C21        -0.8030    4.7210    1.3820 c         1 MOL      0.689737
     65 O12        -1.8560    4.4200    1.8970 o         1 MOL     -0.577783
     66 H26        -2.7380    6.0080   -0.5050 hn        1 MOL      0.359707
     67 H27        -0.6880    6.4570    0.2600 h1        1 MOL      0.087899
     68 H28        -0.0650    5.1200   -0.7050 h1        1 MOL      0.087899
     69 N8          0.3680    4.6220    2.0370 n         1 MOL     -0.669510
     70 C22         1.6400    5.2420    1.7250 c3        1 MOL      0.117651
     71 C23         2.8500    4.3000    1.6680 c         1 MOL      0.537951
     72 O13         3.8720    4.4670    2.2940 o         1 MOL     -0.579967
     73 C24         1.9220    6.5850    2.5310 c3        1 MOL      0.348099
     74 C25         0.7850    7.5730    2.1990 c3        1 MOL     -0.234678
     75 O14         1.7960    6.3760    3.8980 oh        1 MOL     -0.626234
     76 H29         0.4400    4.2320    2.9620 hn        1 MOL      0.387316
     77 H30         1.6190    5.6430    0.7120 h1        1 MOL     -0.009078
     78 H31         2.8870    7.0220    2.2560 h1        1 MOL      0.017947
     79 H32         2.4650    6.8780    4.3800 ho        1 MOL      0.397939
     80 H33         0.6260    7.7650    1.1330 hc        1 MOL      0.046935
     81 H34        -0.1430    7.1980    2.6340 hc        1 MOL      0.046935
     82 H35         0.9810    8.5680    2.6080 hc        1 MOL      0.046935
     83 N9          2.7080    3.1580    0.9570 n         1 MOL     -0.411427
     84 C26         3.7720    2.1580    0.8850 c3        1 MOL     -0.015067
     85 C27         3.8750    1.6610   -0.5080 c         1 MOL      0.420697
     86 O15         2.8510    1.2830   -1.0900 o         1 MOL     -0.554655
     87 C28         3.5640    1.0240    1.8870 c3        1 MOL     -0.106172
     88 C29         3.4420    1.4870    3.4330 c3        1 MOL      0.149913
     89 C30         4.6140   -0.1610    1.8730 c3        1 MOL      0.010702
     90 C31         2.8860    0.4180    4.3940 c3        1 MOL     -0.244655
     91 H36         1.8270    3.0060    0.4830 hn        1 MOL      0.249683
     92 H37         4.7400    2.5840    1.1410 h1        1 MOL      0.117297
     93 H38         2.6510    0.5460    1.5530 hc        1 MOL      0.063532
     94 H39         2.7320    2.3140    3.5330 hc        1 MOL     -0.005595
     95 H40         4.3940    1.8200    3.8450 hc        1 MOL     -0.005595
     96 H41         5.1840   -0.1940    0.9500 hc        1 MOL      0.017261
     97 H42         5.2960   -0.1250    2.7250 hc        1 MOL      0.017261
     98 H43         3.9910   -1.0400    2.0490 hc        1 MOL      0.017261
     99 H44         3.5700   -0.4370    4.4520 hc        1 MOL      0.045209
    100 H45         2.8210    0.8400    5.3880 hc        1 MOL      0.045209
    101 H46         1.9270    0.0690    3.9970 hc        1 MOL      0.045209
    102 N10         5.0130    1.4710   -1.1050 n         1 MOL     -0.203069
    103 C32         6.3390    1.8610   -0.5850 c3        1 MOL      0.352816
    104 C33         7.3700    0.9400   -1.1730 c         1 MOL      0.323238
    105 O16         7.0820    0.2730   -2.2320 o         1 MOL     -0.424684
    106 C34         6.6680    3.2490   -0.9240 c3        1 MOL     -0.262206
    107 C35         6.2340    3.6600   -2.3500 c         1 MOL      0.631792
    108 O17         7.0500    3.3740   -3.2860 o         1 MOL     -0.695571
    109 O18         5.0930    4.1550   -2.6250 o         1 MOL     -0.695571
    110 H47         4.9620    0.9480   -1.9670 hn        1 MOL      0.265889
    111 H48         6.4370    1.7130    0.4860 h1        1 MOL     -0.070369
    112 H49         7.7190    3.4990   -0.7450 hc        1 MOL      0.017558
    113 H50         6.1320    3.9310   -0.2700 hc        1 MOL      0.017558
    114 N11         8.5360    0.7960   -0.4510 n         1 MOL     -0.514368
    115 C36         9.6350   -0.1460   -0.7680 c3        1 MOL      0.213015
    116 C37        10.3840   -0.4890    0.5240 c         1 MOL      0.210987
    117 O19        10.5480    0.3130    1.4340 o         1 MOL     -0.505867
    118 C38        10.5240    0.6890   -1.7340 c3        1 MOL     -0.073736
    119 C39        11.7980    0.0220   -2.1220 ca        1 MOL      0.016917
    120 C40        13.0830    0.5070   -1.7530 ca        1 MOL     -0.123124
    121 C41        11.7580   -1.0620   -3.0460 ca        1 MOL     -0.123124
    122 C42        14.2600   -0.1200   -2.2410 ca        1 MOL     -0.133163
    123 C43        12.9250   -1.6240   -3.5310 ca        1 MOL     -0.133163
    124 C44        14.1950   -1.2180   -3.1030 ca        1 MOL     -0.100846
    125 H51         8.6300    1.3220    0.3990 hn        1 MOL      0.315731
    126 H52         9.2900   -1.0690   -1.2350 h1        1 MOL      0.060918
    127 H53        10.6350    1.7140   -1.3620 hc        1 MOL      0.089695
    128 H54         9.9480    0.8390   -2.6480 hc        1 MOL      0.089695
    129 H55        13.1640    1.2590   -0.9710 ha        1 MOL      0.105629
    130 H56        10.7880   -1.5030   -3.2300 ha        1 MOL      0.105629
    131 H57        15.2090    0.2620   -1.9160 ha        1 MOL      0.098788
    132 H58        12.8600   -2.4690   -4.2060 ha        1 MOL      0.098788
    133 H59        15.1160   -1.6700   -3.4360 ha        1 MOL      0.089351
    134 N12        10.8980   -1.7280    0.7180 n         1 MOL      0.070917
    135 C45        10.8530   -2.8290   -0.2610 c3        1 MOL     -0.088281
    136 C46         9.4620   -3.4540   -0.4170 c         1 MOL      0.494711
    137 O20         9.1800   -4.1180   -1.3950 o         1 MOL     -0.508498
    138 C47        11.8910   -3.8380    0.2010 c3        1 MOL     -0.069415
    139 C48        12.0980   -3.5400    1.7220 c3        1 MOL     -0.017568
    140 C49        11.9090   -2.0460    1.7840 c3        1 MOL     -0.115783
    141 H60        11.1510   -2.5560   -1.2770 h1        1 MOL      0.100425
    142 H61        11.5240   -4.8480   -0.0030 hc        1 MOL      0.033861
    143 H62        12.7780   -3.6070   -0.3920 hc        1 MOL      0.033861
    144 H63        11.3130   -4.0530    2.2920 hc        1 MOL      0.021586
    145 H64        13.1270   -3.8250    1.9470 hc        1 MOL      0.021586
    146 H65        11.5120   -1.8060    2.7700 h1        1 MOL      0.067627
    147 H66        12.8780   -1.5780    1.6400 h1        1 MOL      0.067627
    148 N13         8.6280   -3.4170    0.6790 n         1 MOL     -0.327163
    149 C50         7.4330   -4.2480    0.9610 c3        1 MOL      0.148205
    150 C51         7.5910   -4.7880    2.4070 c         1 MOL      0.435787
    151 O21         8.3910   -4.2220    3.1720 o         1 MOL     -0.564922
    152 C52         6.1390   -3.3930    0.8240 c3        1 MOL     -0.030796
    153 C53         5.8970   -2.7850   -0.5680 c3        1 MOL     -0.158855
    154 C54         5.4990   -3.8270   -1.6610 c         1 MOL      0.771382
    155 O22         4.8780   -3.3240   -2.6040 o         1 MOL     -0.735634
    156 O23         5.7290   -5.0370   -1.5990 o         1 MOL     -0.735634
    157 H67         8.9250   -2.8780    1.4830 hn        1 MOL      0.213152
    158 H68         7.4650   -4.9840    0.1600 h1        1 MOL      0.074875
    159 H69         5.9770   -2.6010    1.5470 hc        1 MOL     -0.015505
    160 H70         5.3630   -4.1280    1.0180 hc        1 MOL     -0.015505
    161 H71         6.8070   -2.2690   -0.8890 hc        1 MOL      0.006198
    162 H72         5.1140   -2.0410   -0.4210 hc        1 MOL      0.006198
    163 N14         6.9890   -5.9050    2.8620 n         1 MOL     -0.420237
    164 C55         5.9960   -6.9210    2.2540 c3        1 MOL     -0.097379
    165 H73         5.0160   -6.4540    2.1540 h1        1 MOL      0.084134
    166 H74         6.3500   -7.2340    1.2730 h1        1 MOL      0.084134
    167 H75         5.9190   -7.7900    2.9080 h1        1 MOL      0.084134
    168 H76         7.0360   -5.8700    3.8760 hn        1 MOL      0.275205
    169 Ca1        -7.3110    0.0010    0.8740 Ca        1 MOL      1.695393
    170 O24        -5.2520   -0.2940    3.0570 oh        1 MOL     -0.782996
    171 H77        -5.3050   -0.6960    3.9230 ho        1 MOL      0.396913
    172 H78        -4.5290   -0.7460    2.6270 ho        1 MOL      0.396913
    173 O25        -8.6230    2.3410    2.4700 oh        1 MOL     -0.782996
    174 H79        -8.9180    2.7050    1.6310 ho        1 MOL      0.396913
    175 H80        -9.4320    2.0700    2.9010 ho        1 MOL      0.396913
    176 O26        -4.8870   -0.1170   -0.4670 oh        1 MOL     -0.782996
    177 H81        -4.0340   -0.0170   -0.0550 ho        1 MOL      0.396913
    178 H82        -4.6870   -0.4680   -1.3350 ho        1 MOL      0.396913
    179 O27        -8.1200   -0.4870    3.4280 oh        1 MOL     -0.782996
    180 H83        -8.7200   -0.1840    4.1020 ho        1 MOL      0.396913
    181 H84        -7.8680   -1.3700    3.7170 ho        1 MOL      0.396913
@<TRIPOS>BOND
     1    1    2 1   
     2    1    4 1   
     3    1    5 1   
     4    1    6 1   
     5    2    3 2   
     6    2    7 1   
     7    7    8 1   
     8    7   15 1   
     9    8    9 1   
    10    8   11 1   
    11    8   16 1   
    12    9   10 2   
    13    9   19 1   
    14   11   12 1   
    15   11   17 1   
    16   11   18 1   
    17   12   13 1   
    18   12   14 1   
    19   19   20 1   
    20   19   24 1   
    21   20   21 1   
    22   20   23 1   
    23   20   25 1   
    24   21   22 2   
    25   21   29 1   
    26   23   26 1   
    27   23   27 1   
    28   23   28 1   
    29   29   30 1   
    30   29   37 1   
    31   30   31 1   
    32   30   33 1   
    33   30   38 1   
    34   31   32 2   
    35   31   41 1   
    36   33   34 1   
    37   33   39 1   
    38   33   40 1   
    39   34   35 1   
    40   34   36 1   
    41   41   42 1   
    42   41   45 1   
    43   42   43 1   
    44   42   46 1   
    45   42   47 1   
    46   43   44 2   
    47   43   48 1   
    48   48   49 1   
    49   48   56 1   
    50   49   50 1   
    51   49   52 1   
    52   49   57 1   
    53   50   51 2   
    54   50   62 1   
    55   52   53 1   
    56   52   58 1   
    57   52   59 1   
    58   53   54 1   
    59   53   55 2   
    60   54   60 1   
    61   54   61 1   
    62   62   63 1   
    63   62   66 1   
    64   63   64 1   
    65   63   67 1   
    66   63   68 1   
    67   64   65 2   
    68   64   69 1   
    69   69   70 1   
    70   69   76 1   
    71   70   71 1   
    72   70   73 1   
    73   70   77 1   
    74   71   72 2   
    75   71   83 1   
    76   73   74 1   
    77   73   75 1   
    78   73   78 1   
    79   74   80 1   
    80   74   81 1   
    81   74   82 1   
    82   75   79 1   
    83   83   84 1   
    84   83   91 1   
    85   84   85 1   
    86   84   87 1   
    87   84   92 1   
    88   85   86 2   
    89   85  102 1   
    90   87   88 1   
    91   87   89 1   
    92   87   93 1   
    93   88   90 1   
    94   88   94 1   
    95   88   95 1   
    96   89   96 1   
    97   89   97 1   
    98   89   98 1   
    99   90   99 1   
   100   90  100 1   
   101   90  101 1   
   102  102  103 1   
   103  102  110 1   
   104  103  104 1   
   105  103  106 1   
   106  103  111 1   
   107  104  105 2   
   108  104  114 1   
   109  106  107 1   
   110  106  112 1   
   111  106  113 1   
   112  107  108 1   
   113  107  109 1   
   114  114  115 1   
   115  114  125 1   
   116  115  116 1   
   117  115  118 1   
   118  115  126 1   
   119  116  117 2   
   120  116  134 1   
   121  118  119 1   
   122  118  127 1   
   123  118  128 1   
   124  119  120 ar  
   125  119  121 ar  
   126  120  122 ar  
   127  120  129 1   
   128  121  123 ar  
   129  121  130 1   
   130  122  124 ar  
   131  122  131 1   
   132  123  124 ar  
   133  123  132 1   
   134  124  133 1   
   135  134  135 1   
   136  134  140 1   
   137  135  136 1   
   138  135  138 1   
   139  135  141 1   
   140  136  137 2   
   141  136  148 1   
   142  138  139 1   
   143  138  142 1   
   144  138  143 1   
   145  139  140 1   
   146  139  144 1   
   147  139  145 1   
   148  140  146 1   
   149  140  147 1   
   150  148  149 1   
   151  148  157 1   
   152  149  150 1   
   153  149  152 1   
   154  149  158 1   
   155  150  151 2   
   156  150  163 1   
   157  152  153 1   
   158  152  159 1   
   159  152  160 1   
   160  153  154 1   
   161  153  161 1   
   162  153  162 1   
   163  154  155 1   
   164  154  156 1   
   165  163  164 1   
   166  163  168 1   
   167  164  165 1   
   168  164  166 1   
   169  164  167 1   
   170  170  171 1   
   171  170  172 1   
   172  173  174 1   
   173  173  175 1   
   174  176  177 1   
   175  176  178 1   
   176  179  180 1   
   177  179  181 1   
@<TRIPOS>SUBSTRUCTURE
     1 MOL         1 TEMP              0 ****  ****    0 ROOT
