@<TRIPOS>MOLECULE
MOL
  184   179     1     0     0
SMALL
resp


@<TRIPOS>ATOM
      1 C1          1.7770   -3.0110    5.1590 c3        1 MOL     -0.407793
      2 C2          2.8970   -2.4970    4.2720 c         1 MOL      0.726967
      3 O1          2.7140   -1.8820    3.2260 o         1 MOL     -0.561822
      4 H1          2.1250   -3.0570    6.1910 hc        1 MOL      0.100066
      5 H2          0.9230   -2.3380    5.0930 hc        1 MOL      0.100066
      6 H3          1.4800   -4.0070    4.8300 hc        1 MOL      0.100066
      7 N1          4.1050   -2.5500    4.7690 n         1 MOL     -0.695238
      8 C3          5.2990   -1.8780    4.1950 c3        1 MOL      0.500478
      9 C4          5.7570   -2.6480    2.9330 c         1 MOL      0.420232
     10 O2          5.2300   -3.7760    2.7510 o         1 MOL     -0.549728
     11 C5          6.3960   -1.6860    5.2380 c3        1 MOL     -0.352910
     12 C6          7.3670   -0.6080    4.8600 c         1 MOL      0.760412
     13 O3          7.2290   -0.0530    3.7830 o         1 MOL     -0.737083
     14 O4          8.2680   -0.3020    5.7140 o         1 MOL     -0.737083
     15 H4          4.1200   -2.9380    5.6990 hn        1 MOL      0.313853
     16 H5          4.9850   -0.9070    3.8130 h1        1 MOL     -0.011477
     17 H6          6.8940   -2.6430    5.4040 hc        1 MOL      0.036485
     18 H7          5.8590   -1.4540    6.1580 hc        1 MOL      0.036485
     19 N2          6.5390   -2.0670    1.9650 n         1 MOL     -0.502242
     20 C7          6.8300   -2.7360    0.6380 c3        1 MOL      0.328700
     21 C8          6.1250   -2.0980   -0.5540 c         1 MOL      0.578478
     22 O5          5.4870   -1.0920   -0.3800 o         1 MOL     -0.565035
     23 C9          8.3100   -2.7350    0.4440 c3        1 MOL     -0.286682
     24 H8          6.7150   -1.0940    2.1420 hn        1 MOL      0.314751
     25 H9          6.5700   -3.7950    0.7280 h1        1 MOL      0.014270
     26 H10         8.6650   -3.2030   -0.4770 hc        1 MOL      0.059814
     27 H11         8.7560   -1.7510    0.5180 hc        1 MOL      0.059814
     28 H12         8.8560   -3.2140    1.2630 hc        1 MOL      0.059814
     29 N3          6.1320   -2.6960   -1.7210 n         1 MOL     -0.524881
     30 C10         5.5120   -2.2410   -2.9600 c3        1 MOL      0.102858
     31 C11         6.2600   -1.1490   -3.7080 c         1 MOL      0.518395
     32 O6          7.4290   -1.3300   -4.0250 o         1 MOL     -0.552268
     33 C12         5.0210   -3.4200   -3.8810 c3        1 MOL     -0.335161
     34 C13         3.9060   -4.3080   -3.2880 c         1 MOL      0.935225
     35 O7          3.3540   -4.1190   -2.1900 o         1 MOL     -0.792645
     36 O8          3.5150   -5.2710   -3.9660 o         1 MOL     -0.792645
     37 H13         6.5870   -3.5930   -1.8250 hn        1 MOL      0.310760
     38 H14         4.5610   -1.7630   -2.7370 h1        1 MOL      0.062875
     39 H15         5.7900   -4.1540   -4.1150 hc        1 MOL      0.067965
     40 H16         4.6090   -2.9710   -4.7870 hc        1 MOL      0.067965
     41 N4          5.5920   -0.0150   -3.9800 n         1 MOL     -0.262161
     42 C14         6.1310    1.0570   -4.8890 c3        1 MOL     -0.256856
     43 C15         5.3250    2.3780   -4.8800 c         1 MOL      0.523888
     44 O9          5.3560    3.1620   -5.8530 o         1 MOL     -0.546410
     45 H17         4.6020    0.0020   -3.7720 hn        1 MOL      0.233244
     46 H18         6.0150    0.6460   -5.8950 h1        1 MOL      0.133522
     47 H19         7.1610    1.3140   -4.6250 h1        1 MOL      0.133522
     48 N5          4.5140    2.5740   -3.8460 n         1 MOL     -0.204721
     49 C16         3.7060    3.7610   -3.5580 c3        1 MOL     -0.032026
     50 C17         3.4050    3.9770   -2.1120 c         1 MOL      0.566326
     51 O10         3.0450    2.9760   -1.5040 o         1 MOL     -0.466156
     52 C18         2.3880    3.6500   -4.3620 c3        1 MOL     -0.373357
     53 C19         1.8650    4.9980   -4.5200 c         1 MOL      0.645930
     54 N6          0.7660    5.3310   -3.8690 n         1 MOL     -0.735309
     55 O11         2.4240    5.8890   -5.0870 o         1 MOL     -0.559767
     56 H20         4.5780    1.9860   -3.0300 hn        1 MOL      0.169653
     57 H21         4.2420    4.6250   -3.9490 h1        1 MOL      0.069236
     58 H22         1.6730    2.9880   -3.8670 hc        1 MOL      0.136872
     59 H23         2.5740    3.2660   -5.3660 hc        1 MOL      0.136872
     60 H24         0.2910    4.6050   -3.3560 hn        1 MOL      0.347668
     61 H25         0.3630    6.2360   -4.0630 hn        1 MOL      0.347668
     62 N7          3.5030    5.1060   -1.5230 n         1 MOL     -0.502868
     63 C20         2.9820    5.4690   -0.1960 c3        1 MOL     -0.017813
     64 C21         1.5860    5.9420   -0.1540 c         1 MOL      0.547111
     65 O12         0.7390    5.6460   -0.9480 o         1 MOL     -0.468559
     66 H26         3.7290    5.9120   -2.0890 hn        1 MOL      0.321214
     67 H27         3.6700    6.1510    0.2940 h1        1 MOL      0.094883
     68 H28         3.1170    4.6200    0.4800 h1        1 MOL      0.094883
     69 N8          1.2720    6.7590    0.8270 n         1 MOL     -0.437036
     70 C22        -0.1140    7.2310    1.1200 c3        1 MOL     -0.256399
     71 C23        -1.2230    6.3090    1.6020 c         1 MOL      0.404594
     72 O13        -2.3980    6.7470    1.7740 o         1 MOL     -0.536515
     73 C24        -0.0910    8.4650    2.0920 c3        1 MOL      0.594890
     74 C25         0.3400    8.2010    3.5470 c3        1 MOL     -0.382202
     75 O14         0.6860    9.4160    1.4960 oh        1 MOL     -0.666435
     76 H29         1.9830    7.0850    1.4780 hn        1 MOL      0.238834
     77 H30        -0.4360    7.7420    0.2080 h1        1 MOL      0.160977
     78 H31        -1.0930    8.9010    2.1120 h1        1 MOL     -0.001036
     79 H32         1.6220    9.2140    1.6230 ho        1 MOL      0.384401
     80 H33         0.8510    7.2340    3.5210 hc        1 MOL      0.084569
     81 H34         0.9610    9.0280    3.8990 hc        1 MOL      0.084569
     82 H35        -0.4690    8.0620    4.2510 hc        1 MOL      0.084569
     83 N9         -0.8650    5.0240    1.9290 n         1 MOL     -0.100969
     84 C26        -1.7800    4.0190    2.4210 c3        1 MOL     -0.062043
     85 C27        -1.3380    2.6940    1.7020 c         1 MOL      0.413624
     86 O15        -0.1670    2.6500    1.2000 o         1 MOL     -0.463284
     87 C28        -1.7740    3.8970    3.9480 c3        1 MOL      0.132195
     88 C29        -0.4610    3.8590    4.7120 c3        1 MOL      0.070796
     89 C30        -2.8040    4.8710    4.5340 c3        1 MOL     -0.382899
     90 C31         0.5550    2.8010    4.3170 c3        1 MOL     -0.255697
     91 H36         0.0850    4.7010    1.8070 hn        1 MOL      0.175958
     92 H37        -2.7850    4.2570    2.0650 h1        1 MOL      0.091017
     93 H38        -2.2370    2.9460    4.2400 hc        1 MOL      0.016153
     94 H39        -0.5640    3.7200    5.7880 hc        1 MOL     -0.017589
     95 H40         0.1130    4.7730    4.5900 hc        1 MOL     -0.017589
     96 H41        -2.8500    4.7230    5.6140 hc        1 MOL      0.093178
     97 H42        -2.4210    5.8520    4.2440 hc        1 MOL      0.093178
     98 H43        -3.8140    4.6640    4.1980 hc        1 MOL      0.093178
     99 H44         1.0730    2.9980    3.3880 hc        1 MOL      0.084505
    100 H45         1.2950    2.8100    5.1110 hc        1 MOL      0.084505
    101 H46         0.2210    1.7620    4.2300 hc        1 MOL      0.084505
    102 N10        -2.2040    1.6870    1.5920 n         1 MOL     -0.601430
    103 C32        -2.0830    0.5060    0.6870 c3        1 MOL      0.417126
    104 C33        -3.3970   -0.0220    0.0760 c         1 MOL      0.346786
    105 O16        -3.4830   -1.2130   -0.2590 o         1 MOL     -0.414540
    106 C34        -1.2800   -0.4960    1.4500 c3        1 MOL     -0.331347
    107 C35        -0.6230   -1.5820    0.5750 c         1 MOL      0.702468
    108 O17         0.0840   -2.4940    1.1320 o         1 MOL     -0.689810
    109 O18        -0.5330   -1.5310   -0.6340 o         1 MOL     -0.689810
    110 H47        -3.0290    1.8330    2.1550 hn        1 MOL      0.307788
    111 H48        -1.5610    0.8730   -0.1920 h1        1 MOL      0.021127
    112 H49        -2.0050   -1.0170    2.0650 hc        1 MOL      0.093124
    113 H50        -0.5670   -0.0330    2.1470 hc        1 MOL      0.093124
    114 N11        -4.4540    0.8140   -0.0450 n         1 MOL     -0.364513
    115 C36        -5.5770    0.5770   -1.0570 c3        1 MOL      0.061346
    116 C37        -6.4730   -0.4820   -0.3790 c         1 MOL      0.129544
    117 O19        -6.8580   -0.4280    0.8130 o         1 MOL     -0.417756
    118 C38        -6.3930    1.8600   -1.1910 c3        1 MOL     -0.245499
    119 C39        -7.7500    1.5530   -1.9220 ca        1 MOL      0.098544
    120 C40        -7.7330    1.5860   -3.3040 ca        1 MOL     -0.176402
    121 C41        -8.9570    1.5140   -1.2330 ca        1 MOL     -0.176402
    122 C42        -8.9630    1.5180   -4.0290 ca        1 MOL     -0.073314
    123 C43       -10.2070    1.4760   -1.9490 ca        1 MOL     -0.073314
    124 C44       -10.1770    1.5150   -3.3310 ca        1 MOL     -0.159168
    125 H51        -4.4010    1.6640    0.4950 hn        1 MOL      0.229144
    126 H52        -5.1050    0.2370   -1.9790 h1        1 MOL      0.097150
    127 H53        -5.8440    2.6230   -1.7520 hc        1 MOL      0.121503
    128 H54        -6.5820    2.4620   -0.2950 hc        1 MOL      0.121503
    129 H55        -6.8020    1.7180   -3.8370 ha        1 MOL      0.128350
    130 H56        -8.9510    1.4820   -0.1560 ha        1 MOL      0.128350
    131 H57        -8.9500    1.5760   -5.1100 ha        1 MOL      0.104794
    132 H58       -11.1440    1.3610   -1.4170 ha        1 MOL      0.104794
    133 H59       -11.1280    1.5520   -3.8380 ha        1 MOL      0.111757
    134 N12        -6.9400   -1.5070   -1.1720 n         1 MOL      0.161896
    135 C45        -7.7670   -2.5930   -0.6520 c3        1 MOL     -0.008404
    136 C46        -7.0710   -3.3020    0.5520 c         1 MOL      0.320792
    137 O20        -7.7520   -3.7390    1.4970 o         1 MOL     -0.518170
    138 C47        -8.1140   -3.5640   -1.8080 c3        1 MOL     -0.040578
    139 C48        -7.8860   -2.6690   -3.0210 c3        1 MOL     -0.027964
    140 C49        -6.8200   -1.6870   -2.6090 c3        1 MOL      0.082685
    141 H60        -8.6910   -2.1400   -0.3000 h1        1 MOL      0.054928
    142 H61        -7.4250   -4.4010   -1.9330 hc        1 MOL      0.046140
    143 H62        -9.1060   -4.0140   -1.8570 hc        1 MOL      0.046140
    144 H63        -7.5670   -3.1950   -3.9260 hc        1 MOL      0.003819
    145 H64        -8.7170   -2.0310   -3.3260 hc        1 MOL      0.003819
    146 H65        -5.8610   -2.1370   -2.8890 h1        1 MOL     -0.005819
    147 H66        -6.9970   -0.7360   -3.1070 h1        1 MOL     -0.005819
    148 N13        -5.7020   -3.3480    0.6870 n         1 MOL     -0.121989
    149 C50        -5.0100   -4.0070    1.7910 c3        1 MOL     -0.260950
    150 C51        -5.0190   -3.1900    3.0810 c         1 MOL      0.435061
    151 O21        -4.5070   -3.7170    4.1170 o         1 MOL     -0.556226
    152 C52        -3.4790   -4.2220    1.4270 c3        1 MOL      0.059791
    153 C53        -3.3350   -4.9100    0.0740 c3        1 MOL     -0.026853
    154 C54        -1.9250   -5.2960   -0.2630 c         1 MOL      0.748539
    155 O22        -1.4860   -6.3920    0.1140 o         1 MOL     -0.746542
    156 O23        -1.2720   -4.5430   -1.0180 o         1 MOL     -0.746542
    157 H67        -5.0960   -3.0710   -0.0650 hn        1 MOL      0.134466
    158 H68        -5.4740   -4.9630    2.0350 h1        1 MOL      0.160572
    159 H69        -2.9400   -4.9030    2.0900 hc        1 MOL      0.037923
    160 H70        -2.9230   -3.2890    1.3770 hc        1 MOL      0.037923
    161 H71        -3.6160   -4.1630   -0.6610 hc        1 MOL     -0.024607
    162 H72        -3.9810   -5.7690   -0.0800 hc        1 MOL     -0.024607
    163 N14        -5.4790   -1.9240    3.0260 n         1 MOL     -0.007842
    164 C55        -5.5670   -1.0410    4.1170 c3        1 MOL     -0.296383
    165 H73        -4.9090   -1.3840    4.9150 h1        1 MOL      0.095151
    166 H74        -5.2670   -0.0420    3.8020 h1        1 MOL      0.095151
    167 H75        -6.5950   -1.0150    4.4810 h1        1 MOL      0.095151
    168 H76        -5.7370   -1.5760    2.1080 hn        1 MOL      0.128935
    169 Ca1         1.0600   -3.5800   -1.1210 Ca        1 MOL      1.812023
    170 O24         1.0820   -5.6360   -2.9230 oh        1 MOL     -0.845271
    171 H77         1.8150   -5.6180   -3.5400 ho        1 MOL      0.394064
    172 H78         0.6920   -6.5020   -3.0460 ho        1 MOL      0.394064
    173 O25         2.6000   -1.3660   -0.5740 oh        1 MOL     -0.845271
    174 H79         2.0750   -0.7100   -0.1240 ho        1 MOL      0.394064
    175 H80         3.4960   -1.2200   -0.2610 ho        1 MOL      0.394064
    176 O26         1.0520   -6.3650    0.2560 oh        1 MOL     -0.845271
    177 H81         0.1150   -6.5280    0.2210 ho        1 MOL      0.394064
    178 H82         1.4530   -7.1540   -0.1020 ho        1 MOL      0.394064
    179 O27         2.8650   -3.9160    0.9040 oh        1 MOL     -0.845271
    180 H83         3.0360   -3.2790    1.5930 ho        1 MOL      0.394064
    181 H84         3.3800   -4.6880    1.1580 ho        1 MOL      0.394064
    182 O28         0.2650   -2.4820   -3.4630 oh        1 MOL     -0.845271
    183 H85        -0.5540   -2.7460   -3.8920 ho        1 MOL      0.394064
    184 H86         0.7770   -2.0560   -4.1590 ho        1 MOL      0.394064
@<TRIPOS>BOND
     1    1    2 1   
     2    1    4 1   
     3    1    5 1   
     4    1    6 1   
     5    2    3 2   
     6    2    7 1   
     7    7    8 1   
     8    7   15 1   
     9    8    9 1   
    10    8   11 1   
    11    8   16 1   
    12    9   10 2   
    13    9   19 1   
    14   11   12 1   
    15   11   17 1   
    16   11   18 1   
    17   12   13 1   
    18   12   14 1   
    19   19   20 1   
    20   19   24 1   
    21   20   21 1   
    22   20   23 1   
    23   20   25 1   
    24   21   22 2   
    25   21   29 1   
    26   23   26 1   
    27   23   27 1   
    28   23   28 1   
    29   29   30 1   
    30   29   37 1   
    31   30   31 1   
    32   30   33 1   
    33   30   38 1   
    34   31   32 2   
    35   31   41 1   
    36   33   34 1   
    37   33   39 1   
    38   33   40 1   
    39   34   35 1   
    40   34   36 1   
    41   41   42 1   
    42   41   45 1   
    43   42   43 1   
    44   42   46 1   
    45   42   47 1   
    46   43   44 2   
    47   43   48 1   
    48   48   49 1   
    49   48   56 1   
    50   49   50 1   
    51   49   52 1   
    52   49   57 1   
    53   50   51 2   
    54   50   62 1   
    55   52   53 1   
    56   52   58 1   
    57   52   59 1   
    58   53   54 1   
    59   53   55 2   
    60   54   60 1   
    61   54   61 1   
    62   62   63 1   
    63   62   66 1   
    64   63   64 1   
    65   63   67 1   
    66   63   68 1   
    67   64   65 2   
    68   64   69 1   
    69   69   70 1   
    70   69   76 1   
    71   70   71 1   
    72   70   73 1   
    73   70   77 1   
    74   71   72 2   
    75   71   83 1   
    76   73   74 1   
    77   73   75 1   
    78   73   78 1   
    79   74   80 1   
    80   74   81 1   
    81   74   82 1   
    82   75   79 1   
    83   83   84 1   
    84   83   91 1   
    85   84   85 1   
    86   84   87 1   
    87   84   92 1   
    88   85   86 2   
    89   85  102 1   
    90   87   88 1   
    91   87   89 1   
    92   87   93 1   
    93   88   90 1   
    94   88   94 1   
    95   88   95 1   
    96   89   96 1   
    97   89   97 1   
    98   89   98 1   
    99   90   99 1   
   100   90  100 1   
   101   90  101 1   
   102  102  103 1   
   103  102  110 1   
   104  103  104 1   
   105  103  106 1   
   106  103  111 1   
   107  104  105 2   
   108  104  114 1   
   109  106  107 1   
   110  106  112 1   
   111  106  113 1   
   112  107  108 1   
   113  107  109 1   
   114  114  115 1   
   115  114  125 1   
   116  115  116 1   
   117  115  118 1   
   118  115  126 1   
   119  116  117 2   
   120  116  134 1   
   121  118  119 1   
   122  118  127 1   
   123  118  128 1   
   124  119  120 ar  
   125  119  121 ar  
   126  120  122 ar  
   127  120  129 1   
   128  121  123 ar  
   129  121  130 1   
   130  122  124 ar  
   131  122  131 1   
   132  123  124 ar  
   133  123  132 1   
   134  124  133 1   
   135  134  135 1   
   136  134  140 1   
   137  135  136 1   
   138  135  138 1   
   139  135  141 1   
   140  136  137 2   
   141  136  148 1   
   142  138  139 1   
   143  138  142 1   
   144  138  143 1   
   145  139  140 1   
   146  139  144 1   
   147  139  145 1   
   148  140  146 1   
   149  140  147 1   
   150  148  149 1   
   151  148  157 1   
   152  149  150 1   
   153  149  152 1   
   154  149  158 1   
   155  150  151 2   
   156  150  163 1   
   157  152  153 1   
   158  152  159 1   
   159  152  160 1   
   160  153  154 1   
   161  153  161 1   
   162  153  162 1   
   163  154  155 1   
   164  154  156 1   
   165  163  164 1   
   166  163  168 1   
   167  164  165 1   
   168  164  166 1   
   169  164  167 1   
   170  170  171 1   
   171  170  172 1   
   172  173  174 1   
   173  173  175 1   
   174  176  177 1   
   175  176  178 1   
   176  179  180 1   
   177  179  181 1   
   178  182  183 1   
   179  182  184 1   
@<TRIPOS>SUBSTRUCTURE
     1 MOL         1 TEMP              0 ****  ****    0 ROOT
