@<TRIPOS>MOLECULE
MOL
  181   177     1     0     0
SMALL
resp


@<TRIPOS>ATOM
      1 C1         10.9650   -6.3870   -1.2730 c3        1 MOL     -0.190056
      2 C2          9.8340   -5.4310   -1.7140 c         1 MOL      0.737540
      3 O1          8.9650   -5.8720   -2.4310 o         1 MOL     -0.586232
      4 H1         11.6420   -6.5590   -2.1090 hc        1 MOL      0.031260
      5 H2         11.5160   -5.9420   -0.4450 hc        1 MOL      0.031260
      6 H3         10.5340   -7.3370   -0.9550 hc        1 MOL      0.031260
      7 N1          9.8600   -4.2140   -1.2440 n         1 MOL     -0.592840
      8 C3         10.6270   -3.6280   -0.1910 c3        1 MOL      0.080004
      9 C4         10.9350   -2.1160   -0.4820 c         1 MOL      0.621722
     10 O2         10.7560   -1.7110   -1.6340 o         1 MOL     -0.452433
     11 C5          9.7950   -3.7690    1.1060 c3        1 MOL     -0.038872
     12 C6          8.4740   -2.9890    1.0010 c         1 MOL      0.545991
     13 O3          7.4280   -3.5720    0.5840 o         1 MOL     -0.672967
     14 O4          8.5060   -1.8520    1.4900 o         1 MOL     -0.672967
     15 H4          9.1030   -3.6370   -1.5820 hn        1 MOL      0.335675
     16 H5         11.5630   -4.1520    0.0420 h1        1 MOL      0.058696
     17 H6         10.3810   -3.3820    1.9490 hc        1 MOL     -0.007074
     18 H7          9.5470   -4.7920    1.3880 hc        1 MOL     -0.007074
     19 N2         11.4720   -1.3400    0.5050 n         1 MOL     -0.851563
     20 C7         12.0210    0.0230    0.3860 c3        1 MOL      0.570178
     21 C8         11.0660    1.0390   -0.2050 c         1 MOL      0.325050
     22 O5         11.4960    2.0010   -0.8490 o         1 MOL     -0.528617
     23 C9         13.5010   -0.0020   -0.2020 c3        1 MOL     -0.284686
     24 H8         11.4540   -1.7070    1.4510 hn        1 MOL      0.377880
     25 H9         12.1630    0.4810    1.3710 h1        1 MOL     -0.036529
     26 H10        13.5900   -0.6190   -1.0980 hc        1 MOL      0.062253
     27 H11        13.8270    1.0290   -0.3330 hc        1 MOL      0.062253
     28 H12        14.0690   -0.3740    0.6550 hc        1 MOL      0.062253
     29 N3          9.7400    0.8700   -0.0940 n         1 MOL     -0.222198
     30 C10         8.7090    1.8880   -0.4180 c3        1 MOL     -0.044244
     31 C11         7.5930    2.0000    0.5440 c         1 MOL      0.573192
     32 O6          7.2280    0.9920    1.2280 o         1 MOL     -0.611608
     33 C12         8.2570    1.5050   -1.8710 c3        1 MOL     -0.148409
     34 C13         7.7140    0.0330   -2.0980 c         1 MOL      0.741917
     35 O7          7.5880   -0.3210   -3.2720 o         1 MOL     -0.673300
     36 O8          7.2590   -0.6740   -1.1710 o         1 MOL     -0.673300
     37 H13         9.4400   -0.0710    0.1250 hn        1 MOL      0.105113
     38 H14         9.2820    2.8030   -0.5070 h1        1 MOL      0.062004
     39 H15         9.1080    1.5710   -2.5490 hc        1 MOL      0.052212
     40 H16         7.4840    2.1840   -2.2250 hc        1 MOL      0.052212
     41 N4          6.8830    3.1890    0.6400 n         1 MOL     -0.450990
     42 C14         5.9360    3.5440    1.6700 c3        1 MOL     -0.172132
     43 C15         4.5420    3.3860    1.1620 c         1 MOL      0.624319
     44 O9          4.2130    3.5930   -0.0180 o         1 MOL     -0.524017
     45 H17         7.2770    3.9980    0.1820 hn        1 MOL      0.308933
     46 H18         6.0010    4.5970    1.9680 h1        1 MOL      0.111277
     47 H19         6.1340    2.8940    2.5080 h1        1 MOL      0.111277
     48 N5          3.6430    2.9640    2.0140 n         1 MOL     -0.667141
     49 C16         2.4340    2.1380    1.7390 c3        1 MOL      0.264317
     50 C17         1.2210    3.0020    1.1080 c         1 MOL      0.526918
     51 O10         0.0480    2.6690    1.1700 o         1 MOL     -0.485127
     52 C18         2.0560    1.2540    2.9310 c3        1 MOL     -0.260415
     53 C19         3.2710    0.4290    3.2700 c         1 MOL      0.878919
     54 N6          3.4710    0.2400    4.5830 n         1 MOL     -0.866526
     55 O11         3.9390   -0.0970    2.3850 o         1 MOL     -0.706099
     56 H20         3.9980    3.0230    2.9530 hn        1 MOL      0.287365
     57 H21         2.8120    1.4570    0.9750 h1        1 MOL      0.037035
     58 H22         1.1840    0.6440    2.6880 hc        1 MOL      0.087024
     59 H23         1.9190    2.0040    3.7170 hc        1 MOL      0.087024
     60 H24         2.6680    0.4430    5.1710 hn        1 MOL      0.366103
     61 H25         4.3650   -0.0770    4.9430 hn        1 MOL      0.366103
     62 N7          1.5560    4.2310    0.5980 n         1 MOL     -0.513854
     63 C20         0.6640    5.1390   -0.0630 c3        1 MOL     -0.117156
     64 C21         0.3940    4.7180   -1.4770 c         1 MOL      0.718665
     65 O12         1.1290    3.8930   -2.0320 o         1 MOL     -0.528680
     66 H26         2.5290    4.4740    0.6930 hn        1 MOL      0.320815
     67 H27         1.1590    6.0980   -0.1840 h1        1 MOL      0.120340
     68 H28        -0.2680    5.2070    0.5040 h1        1 MOL      0.120340
     69 N8         -0.6700    5.2890   -2.0980 n         1 MOL     -0.713894
     70 C22        -1.7410    6.1220   -1.5100 c3        1 MOL      0.009201
     71 C23        -2.7590    5.2480   -0.7080 c         1 MOL      0.436609
     72 O13        -3.2900    5.5940    0.3490 o         1 MOL     -0.580657
     73 C24        -2.4210    6.9500   -2.5720 c3        1 MOL      0.463045
     74 C25        -1.4930    7.8890   -3.3030 c3        1 MOL     -0.322672
     75 O14        -3.1230    6.1510   -3.5040 oh        1 MOL     -0.660244
     76 H29        -0.8970    4.9670   -3.0270 hn        1 MOL      0.345964
     77 H30        -1.3220    6.8430   -0.8020 h1        1 MOL      0.025966
     78 H31        -3.1640    7.6110   -2.1320 h1        1 MOL      0.000004
     79 H32        -2.6760    6.1980   -4.3530 ho        1 MOL      0.403200
     80 H33        -1.1270    8.5410   -2.5060 hc        1 MOL      0.072820
     81 H34        -0.6670    7.4160   -3.8360 hc        1 MOL      0.072820
     82 H35        -1.9340    8.5680   -4.0250 hc        1 MOL      0.072820
     83 N9         -2.9910    3.9980   -1.0850 n         1 MOL     -0.125635
     84 C26        -3.8390    3.0400   -0.3790 c3        1 MOL     -0.038247
     85 C27        -3.0590    1.7130   -0.0660 c         1 MOL      0.481067
     86 O15        -2.1650    1.3300   -0.8290 o         1 MOL     -0.452394
     87 C28        -5.1550    2.8240   -1.2140 c3        1 MOL      0.310357
     88 C29        -4.9690    2.0490   -2.5240 c3        1 MOL      0.230998
     89 C30        -6.0610    4.0210   -1.3970 c3        1 MOL     -0.392231
     90 C31        -6.1340    1.1330   -2.9240 c3        1 MOL     -0.415240
     91 H36        -2.6470    3.6610   -1.9710 hn        1 MOL      0.154917
     92 H37        -4.1100    3.5370    0.5510 h1        1 MOL      0.115144
     93 H38        -5.7900    2.1820   -0.6080 hc        1 MOL     -0.024349
     94 H39        -4.1160    1.3960   -2.3420 hc        1 MOL     -0.059771
     95 H40        -4.8150    2.7880   -3.3070 hc        1 MOL     -0.059771
     96 H41        -6.9480    3.8960   -2.0050 hc        1 MOL      0.066317
     97 H42        -6.4300    4.3470   -0.4220 hc        1 MOL      0.066317
     98 H43        -5.4490    4.7960   -1.8530 hc        1 MOL      0.066317
     99 H44        -5.8440    0.5090   -3.7590 hc        1 MOL      0.090688
    100 H45        -6.2750    0.4160   -2.1160 hc        1 MOL      0.090688
    101 H46        -7.0370    1.7220   -3.1060 hc        1 MOL      0.090688
    102 N10        -3.5150    0.9170    0.9320 n         1 MOL     -0.642678
    103 C32        -4.7150    1.0690    1.8260 c3        1 MOL      0.407399
    104 C33        -5.8750    0.0880    1.5650 c         1 MOL      0.531043
    105 O16        -5.6860   -1.1160    1.4190 o         1 MOL     -0.556949
    106 C34        -4.2820    1.0390    3.3000 c3        1 MOL     -0.251138
    107 C35        -5.4650    1.2230    4.2820 c         1 MOL      0.718225
    108 O17        -6.0520    2.2440    4.0830 o         1 MOL     -0.729434
    109 O18        -5.7240    0.2770    5.1050 o         1 MOL     -0.729434
    110 H47        -2.8890    0.1500    1.1170 hn        1 MOL      0.362106
    111 H48        -5.1960    2.0230    1.6580 h1        1 MOL     -0.053795
    112 H49        -3.5740    1.8650    3.4280 hc        1 MOL      0.013703
    113 H50        -3.7520    0.0930    3.3880 hc        1 MOL      0.013703
    114 N11        -7.0730    0.5930    1.3920 n         1 MOL     -0.494750
    115 C36        -8.2940   -0.1600    1.1000 c3        1 MOL      0.268001
    116 C37        -8.7350   -0.0910   -0.4050 c         1 MOL      0.182834
    117 O19        -8.6790    1.0340   -0.8850 o         1 MOL     -0.469958
    118 C38        -9.3720    0.4460    1.9420 c3        1 MOL     -0.081614
    119 C39       -10.4970   -0.5740    2.1100 ca        1 MOL     -0.103180
    120 C40       -11.5990   -0.7760    1.3090 ca        1 MOL     -0.069707
    121 C41       -10.3060   -1.4540    3.1890 ca        1 MOL     -0.069707
    122 C42       -12.4840   -1.8510    1.4690 ca        1 MOL     -0.211197
    123 C43       -11.1910   -2.5320    3.3350 ca        1 MOL     -0.211197
    124 C44       -12.2600   -2.7720    2.4840 ca        1 MOL     -0.016013
    125 H51        -7.1900    1.5770    1.5890 hn        1 MOL      0.282534
    126 H52        -8.1840   -1.2320    1.3080 h1        1 MOL      0.039383
    127 H53        -9.7820    1.3640    1.5210 hc        1 MOL      0.073400
    128 H54        -9.0480    0.6820    2.9640 hc        1 MOL      0.073400
    129 H55       -11.8170   -0.0530    0.5490 ha        1 MOL      0.123715
    130 H56        -9.4330   -1.2630    3.8030 ha        1 MOL      0.123715
    131 H57       -13.2970   -1.9420    0.7600 ha        1 MOL      0.120041
    132 H58       -11.2210   -3.2320    4.1610 ha        1 MOL      0.120041
    133 H59       -12.9710   -3.5760    2.6190 ha        1 MOL      0.079857
    134 N12        -9.1240   -1.1810   -1.0730 n         1 MOL      0.094163
    135 C45        -9.3730   -2.5150   -0.5320 c3        1 MOL     -0.038204
    136 C46        -8.1880   -3.4670   -0.5190 c         1 MOL      0.417257
    137 O20        -8.2500   -4.3960    0.2860 o         1 MOL     -0.538651
    138 C47       -10.5390   -3.1040   -1.3610 c3        1 MOL     -0.064031
    139 C48       -10.9670   -1.9800   -2.2790 c3        1 MOL      0.025484
    140 C49        -9.7220   -1.1660   -2.3990 c3        1 MOL     -0.098982
    141 H60        -9.7380   -2.3950    0.4830 h1        1 MOL      0.134292
    142 H61       -10.3080   -3.9650   -1.9980 hc        1 MOL      0.040943
    143 H62       -11.3450   -3.2900   -0.6420 hc        1 MOL      0.040943
    144 H63       -11.3150   -2.4730   -3.1840 hc        1 MOL     -0.015784
    145 H64       -11.6480   -1.3220   -1.7430 hc        1 MOL     -0.015784
    146 H65        -9.0170   -1.5920   -3.1110 h1        1 MOL      0.065635
    147 H66       -10.0480   -0.1650   -2.7230 h1        1 MOL      0.065635
    148 N13        -7.1300   -3.2680   -1.3710 n         1 MOL     -0.404257
    149 C50        -5.9910   -4.2060   -1.5860 c3        1 MOL      0.306624
    150 C51        -6.3690   -5.4830   -2.2770 c         1 MOL      0.356503
    151 O21        -6.8540   -5.4560   -3.4240 o         1 MOL     -0.570475
    152 C52        -4.8690   -3.5290   -2.4160 c3        1 MOL     -0.136839
    153 C53        -4.3690   -2.2200   -1.6590 c3        1 MOL     -0.173910
    154 C54        -2.9150   -1.9460   -2.0610 c         1 MOL      0.743943
    155 O22        -2.0200   -2.0790   -1.2210 o         1 MOL     -0.728094
    156 O23        -2.7200   -1.4810   -3.2100 o         1 MOL     -0.728094
    157 H67        -7.0900   -2.4270   -1.9390 hn        1 MOL      0.250008
    158 H68        -5.5520   -4.3790   -0.6090 h1        1 MOL      0.098310
    159 H69        -5.2370   -3.3440   -3.4240 hc        1 MOL      0.034536
    160 H70        -4.0620   -4.2570   -2.5070 hc        1 MOL      0.034536
    161 H71        -4.5820   -2.4430   -0.6160 hc        1 MOL      0.013495
    162 H72        -5.0130   -1.4030   -1.9790 hc        1 MOL      0.013495
    163 N14        -6.3250   -6.6450   -1.6500 n         1 MOL     -0.326968
    164 C55        -5.9400   -6.8820   -0.2160 c3        1 MOL     -0.055997
    165 H73        -6.8340   -6.8640    0.4070 h1        1 MOL      0.048589
    166 H74        -5.4530   -7.8520   -0.1270 h1        1 MOL      0.048589
    167 H75        -5.2550   -6.1000    0.1110 h1        1 MOL      0.048589
    168 H76        -6.6190   -7.4450   -2.1950 hn        1 MOL      0.265839
    169 Ca1         5.9620   -1.2930    0.9310 Ca        1 MOL      1.814734
    170 O24         6.6450   -1.2490    3.7240 oh        1 MOL     -0.808208
    171 H77         7.2630   -1.9600    3.8970 ho        1 MOL      0.404247
    172 H78         6.6380   -0.7350    4.5280 ho        1 MOL      0.404247
    173 O25         4.6110   -3.3890    2.1690 oh        1 MOL     -0.808208
    174 H79         5.0170   -3.9140    2.8570 ho        1 MOL      0.404247
    175 H80         3.6800   -3.4020    2.3770 ho        1 MOL      0.404247
    176 O26         4.6930    0.5720   -0.5000 oh        1 MOL     -0.808208
    177 H81         3.8950    0.2540   -0.9320 ho        1 MOL      0.404247
    178 H82         4.6310    1.5230   -0.5420 ho        1 MOL      0.404247
    179 O27         4.8100   -2.3940   -1.0220 oh        1 MOL     -0.808208
    180 H83         4.9420   -2.0260   -1.8950 ho        1 MOL      0.404247
    181 H84         3.9560   -2.8300   -1.0650 ho        1 MOL      0.404247
@<TRIPOS>BOND
     1    1    2 1   
     2    1    4 1   
     3    1    5 1   
     4    1    6 1   
     5    2    3 2   
     6    2    7 1   
     7    7    8 1   
     8    7   15 1   
     9    8    9 1   
    10    8   11 1   
    11    8   16 1   
    12    9   10 2   
    13    9   19 1   
    14   11   12 1   
    15   11   17 1   
    16   11   18 1   
    17   12   13 1   
    18   12   14 1   
    19   19   20 1   
    20   19   24 1   
    21   20   21 1   
    22   20   23 1   
    23   20   25 1   
    24   21   22 2   
    25   21   29 1   
    26   23   26 1   
    27   23   27 1   
    28   23   28 1   
    29   29   30 1   
    30   29   37 1   
    31   30   31 1   
    32   30   33 1   
    33   30   38 1   
    34   31   32 2   
    35   31   41 1   
    36   33   34 1   
    37   33   39 1   
    38   33   40 1   
    39   34   35 1   
    40   34   36 1   
    41   41   42 1   
    42   41   45 1   
    43   42   43 1   
    44   42   46 1   
    45   42   47 1   
    46   43   44 2   
    47   43   48 1   
    48   48   49 1   
    49   48   56 1   
    50   49   50 1   
    51   49   52 1   
    52   49   57 1   
    53   50   51 2   
    54   50   62 1   
    55   52   53 1   
    56   52   58 1   
    57   52   59 1   
    58   53   54 1   
    59   53   55 2   
    60   54   60 1   
    61   54   61 1   
    62   62   63 1   
    63   62   66 1   
    64   63   64 1   
    65   63   67 1   
    66   63   68 1   
    67   64   65 2   
    68   64   69 1   
    69   69   70 1   
    70   69   76 1   
    71   70   71 1   
    72   70   73 1   
    73   70   77 1   
    74   71   72 2   
    75   71   83 1   
    76   73   74 1   
    77   73   75 1   
    78   73   78 1   
    79   74   80 1   
    80   74   81 1   
    81   74   82 1   
    82   75   79 1   
    83   83   84 1   
    84   83   91 1   
    85   84   85 1   
    86   84   87 1   
    87   84   92 1   
    88   85   86 2   
    89   85  102 1   
    90   87   88 1   
    91   87   89 1   
    92   87   93 1   
    93   88   90 1   
    94   88   94 1   
    95   88   95 1   
    96   89   96 1   
    97   89   97 1   
    98   89   98 1   
    99   90   99 1   
   100   90  100 1   
   101   90  101 1   
   102  102  103 1   
   103  102  110 1   
   104  103  104 1   
   105  103  106 1   
   106  103  111 1   
   107  104  105 2   
   108  104  114 1   
   109  106  107 1   
   110  106  112 1   
   111  106  113 1   
   112  107  108 1   
   113  107  109 1   
   114  114  115 1   
   115  114  125 1   
   116  115  116 1   
   117  115  118 1   
   118  115  126 1   
   119  116  117 2   
   120  116  134 1   
   121  118  119 1   
   122  118  127 1   
   123  118  128 1   
   124  119  120 ar  
   125  119  121 ar  
   126  120  122 ar  
   127  120  129 1   
   128  121  123 ar  
   129  121  130 1   
   130  122  124 ar  
   131  122  131 1   
   132  123  124 ar  
   133  123  132 1   
   134  124  133 1   
   135  134  135 1   
   136  134  140 1   
   137  135  136 1   
   138  135  138 1   
   139  135  141 1   
   140  136  137 2   
   141  136  148 1   
   142  138  139 1   
   143  138  142 1   
   144  138  143 1   
   145  139  140 1   
   146  139  144 1   
   147  139  145 1   
   148  140  146 1   
   149  140  147 1   
   150  148  149 1   
   151  148  157 1   
   152  149  150 1   
   153  149  152 1   
   154  149  158 1   
   155  150  151 2   
   156  150  163 1   
   157  152  153 1   
   158  152  159 1   
   159  152  160 1   
   160  153  154 1   
   161  153  161 1   
   162  153  162 1   
   163  154  155 1   
   164  154  156 1   
   165  163  164 1   
   166  163  168 1   
   167  164  165 1   
   168  164  166 1   
   169  164  167 1   
   170  170  171 1   
   171  170  172 1   
   172  173  174 1   
   173  173  175 1   
   174  176  177 1   
   175  176  178 1   
   176  179  180 1   
   177  179  181 1   
@<TRIPOS>SUBSTRUCTURE
     1 MOL         1 TEMP              0 ****  ****    0 ROOT
