@<TRIPOS>MOLECULE
MOL
  186   183     1     0     0
SMALL
resp


@<TRIPOS>ATOM
      1 C1          4.7700   -4.2110    3.3510 c3        1 MOL     -0.265505
      2 C2          5.3380   -3.1750    2.3230 c         1 MOL      0.796365
      3 O1          4.5910   -2.8460    1.3760 o         1 MOL     -0.717944
      4 H1          3.7960   -4.5620    3.0110 hc        1 MOL      0.061703
      5 H2          5.4540   -5.0560    3.4320 hc        1 MOL      0.061703
      6 H3          4.6630   -3.7350    4.3260 hc        1 MOL      0.061703
      7 N1          6.6010   -2.8030    2.3520 n         1 MOL     -0.721890
      8 C3          7.1860   -1.6740    1.5670 c3        1 MOL      0.229211
      9 C4          6.1870   -0.4650    1.4000 c         1 MOL      0.234444
     10 O2          5.5240   -0.3420    0.3200 o         1 MOL     -0.548652
     11 C5          7.8890   -2.1750    0.3100 c3        1 MOL     -0.189213
     12 C6          7.1230   -3.2220   -0.6400 c         1 MOL      0.887095
     13 O3          6.1080   -2.8520   -1.1970 o         1 MOL     -0.774963
     14 O4          7.7250   -4.2980   -0.8180 o         1 MOL     -0.774963
     15 H4          7.1970   -3.3370    2.9730 hn        1 MOL      0.342080
     16 H5          7.9810   -1.2070    2.1420 h1        1 MOL      0.041709
     17 H6          8.8550   -2.6330    0.4880 hc        1 MOL      0.047098
     18 H7          8.1000   -1.2900   -0.2920 hc        1 MOL      0.047098
     19 N2          6.0310    0.3760    2.3830 n         1 MOL     -0.303869
     20 C7          5.2340    1.6460    2.3900 c3        1 MOL      0.002449
     21 C8          5.5210    2.7320    1.3690 c         1 MOL      0.322175
     22 O5          5.4230    3.9400    1.7220 o         1 MOL     -0.544475
     23 C9          3.7340    1.2730    2.4610 c3        1 MOL      0.189579
     24 C10         2.9080    2.5570    2.7850 c3        1 MOL     -0.108926
     25 C11         3.3370    0.0640    3.4180 c3        1 MOL     -0.303244
     26 C12         1.5260    2.3610    3.4720 c3        1 MOL      0.136561
     27 H8          6.5790    0.2380    3.2120 hn        1 MOL      0.263876
     28 H9          5.5470    1.9510    3.3890 h1        1 MOL      0.071629
     29 H10         3.5070    0.9500    1.4480 hc        1 MOL      0.095178
     30 H11         2.8360    3.1570    1.8720 hc        1 MOL     -0.005404
     31 H12         3.4940    3.1210    3.5160 hc        1 MOL     -0.005404
     32 H13         3.5630    0.3210    4.4620 hc        1 MOL      0.056489
     33 H14         2.3700   -0.3650    3.1880 hc        1 MOL      0.056489
     34 H15         3.9670   -0.7810    3.1710 hc        1 MOL      0.056489
     35 H16         0.8970    1.6190    2.9760 hc        1 MOL     -0.022868
     36 H17         1.7100    2.0300    4.4900 hc        1 MOL     -0.022868
     37 H18         1.0220    3.3100    3.6550 hc        1 MOL     -0.022868
     38 N3          6.0310    2.4320    0.1520 n         1 MOL     -0.111172
     39 C13         6.9690    3.3810   -0.5790 c3        1 MOL      0.029634
     40 C14         6.3640    4.6190   -1.2370 c         1 MOL      0.466871
     41 O6          7.0470    5.6680   -1.5090 o         1 MOL     -0.593148
     42 C15         8.0580    2.6970   -1.4240 c3        1 MOL     -0.256226
     43 C16         8.8160    1.5840   -0.7420 c         1 MOL      0.781107
     44 O7          9.2150    0.6400   -1.4600 o         1 MOL     -0.726457
     45 O8          9.0910    1.5650    0.4640 o         1 MOL     -0.726457
     46 H19         5.9630    1.4460   -0.0730 hn        1 MOL      0.264246
     47 H20         7.4880    3.8340    0.2660 h1        1 MOL      0.071883
     48 H21         8.7290    3.4860   -1.7540 hc        1 MOL      0.063926
     49 H22         7.5820    2.2770   -2.3050 hc        1 MOL      0.063926
     50 N4          5.0580    4.7240   -1.5730 n         1 MOL     -0.375943
     51 C17         4.1790    3.5830   -1.7840 c3        1 MOL     -0.004370
     52 C18         2.9340    3.9810   -2.6950 c         1 MOL      0.583485
     53 O9          2.7570    5.1190   -3.0470 o         1 MOL     -0.577282
     54 H23         4.8000    5.6060   -1.9930 hn        1 MOL      0.252137
     55 H24         3.8250    3.4320   -0.7580 h1        1 MOL      0.087662
     56 H25         4.7170    2.7650   -2.2510 h1        1 MOL      0.087662
     57 N5          2.1700    3.0030   -3.2140 n         1 MOL     -0.550609
     58 C19         2.2130    1.5510   -3.0090 c3        1 MOL      0.077874
     59 C20         2.2660    1.1480   -1.5440 c         1 MOL      0.442653
     60 O10         3.1030    0.3970   -0.9890 o         1 MOL     -0.643569
     61 C21         3.3780    1.0190   -3.8870 c3        1 MOL     -0.296756
     62 C22         3.4330   -0.4990   -4.0160 c         1 MOL      0.752349
     63 O11         4.1520   -1.1290   -3.2190 o         1 MOL     -0.690844
     64 O12         2.8230   -1.0750   -4.9210 o         1 MOL     -0.690844
     65 H26         1.5620    3.3090   -3.9600 hn        1 MOL      0.308278
     66 H27         1.2740    1.1580   -3.4050 h1        1 MOL      0.114610
     67 H28         4.3610    1.2790   -3.4790 hc        1 MOL      0.076479
     68 H29         3.3840    1.3960   -4.9110 hc        1 MOL      0.076479
     69 N6          1.3660    1.6390   -0.6880 n         1 MOL     -0.102178
     70 C23         0.0660    2.2440   -0.9210 c3        1 MOL     -0.107864
     71 C24        -0.4080    3.1910    0.2380 c         1 MOL      0.457803
     72 O13         0.4070    3.6150    1.0990 o         1 MOL     -0.488275
     73 H30         1.6080    1.3130    0.2410 hn        1 MOL      0.184371
     74 H31        -0.5840    1.3940   -1.1010 h1        1 MOL      0.031850
     75 H32         0.1590    2.8430   -1.8280 h1        1 MOL      0.031850
     76 N7         -1.6520    3.6040    0.1880 n         1 MOL     -0.298336
     77 C25        -2.2660    4.6680    1.0150 c3        1 MOL     -0.014324
     78 C26        -2.8770    4.1930    2.3540 c         1 MOL      0.475768
     79 O14        -3.0350    5.0310    3.1680 o         1 MOL     -0.524401
     80 C27        -3.2870    5.3860    0.1190 c3        1 MOL      0.120334
     81 C28        -2.8090    6.2070   -1.1230 c3        1 MOL     -0.066935
     82 C29        -3.9530    6.5900   -2.0230 c         1 MOL      0.645248
     83 N8         -3.6880    7.4170   -3.0320 n         1 MOL     -0.804919
     84 O15        -5.0840    6.1780   -1.8300 o         1 MOL     -0.555060
     85 H33        -2.2330    3.2890   -0.5710 hn        1 MOL      0.250433
     86 H34        -1.4980    5.4050    1.2460 h1        1 MOL      0.092374
     87 H35        -3.8560    6.1190    0.6850 hc        1 MOL     -0.023967
     88 H36        -3.9400    4.6170   -0.2950 hc        1 MOL     -0.023967
     89 H37        -2.0820    5.5550   -1.6140 hc        1 MOL      0.014975
     90 H38        -2.2990    7.1300   -0.8460 hc        1 MOL      0.014975
     91 H39        -2.7690    7.8190   -3.1790 hn        1 MOL      0.356396
     92 H40        -4.4700    7.8180   -3.5270 hn        1 MOL      0.356396
     93 N9         -3.1200    2.9330    2.4900 n         1 MOL     -0.314174
     94 C30        -3.8420    2.4130    3.6680 c3        1 MOL     -0.018836
     95 C31        -5.2520    1.6080    3.3480 c         1 MOL      0.429541
     96 O16        -5.9190    1.1410    4.2710 o         1 MOL     -0.545774
     97 C32        -2.9840    1.5770    4.5780 c3        1 MOL      0.238202
     98 C33        -1.9520    2.4800    5.2060 c3        1 MOL     -0.183239
     99 C34        -2.3000    0.4370    3.8240 c3        1 MOL     -0.183239
    100 H41        -2.8710    2.2270    1.8080 hn        1 MOL      0.213455
    101 H42        -4.1810    3.1950    4.3440 h1        1 MOL      0.081110
    102 H43        -3.6810    1.1890    5.3220 hc        1 MOL     -0.011845
    103 H44        -1.5000    1.8880    5.9940 hc        1 MOL      0.032809
    104 H45        -1.1700    2.9310    4.6020 hc        1 MOL      0.032809
    105 H46        -2.4270    3.2880    5.7760 hc        1 MOL      0.032809
    106 H47        -3.1690   -0.1560    3.5630 hc        1 MOL      0.032809
    107 H48        -1.8820    0.7770    2.8820 hc        1 MOL      0.032809
    108 H49        -1.6000   -0.1710    4.4010 hc        1 MOL      0.032809
    109 N10        -5.6630    1.4310    2.1230 n         1 MOL     -0.358138
    110 C35        -6.9180    0.7130    1.7080 c3        1 MOL      0.291613
    111 C36        -6.7490   -0.6150    1.0250 c         1 MOL      0.409869
    112 O17        -7.3610   -1.6280    1.4490 o         1 MOL     -0.559711
    113 C37        -7.5920    1.7240    0.7600 c3        1 MOL     -0.219995
    114 C38        -6.8620    2.4130   -0.4310 c         1 MOL      0.487033
    115 N11        -7.6130    2.9690   -1.3410 n         1 MOL     -0.638215
    116 O18        -5.6370    2.5250   -0.4770 o         1 MOL     -0.471495
    117 H50        -5.0540    1.7440    1.3860 hn        1 MOL      0.192384
    118 H51        -7.6580    0.6060    2.4910 h1        1 MOL      0.052117
    119 H52        -8.1600    2.5230    1.2210 hc        1 MOL      0.056306
    120 H53        -8.4000    1.1600    0.2910 hc        1 MOL      0.056306
    121 H54        -8.6160    2.9120   -1.2290 hn        1 MOL      0.341519
    122 H55        -7.1720    3.5980   -2.0060 hn        1 MOL      0.341519
    123 N12        -5.8160   -0.8010    0.1220 n         1 MOL     -0.428473
    124 C39        -5.6500   -1.9970   -0.7180 c3        1 MOL      0.601181
    125 C40        -4.2690   -2.6360   -0.6990 c         1 MOL      0.298135
    126 O19        -3.2780   -1.9830   -0.6010 o         1 MOL     -0.470375
    127 C41        -6.2030   -1.7500   -2.0920 c3        1 MOL     -0.287465
    128 C42        -7.6370   -1.2200   -2.1200 ca        1 MOL      0.084612
    129 C43        -8.6380   -2.1270   -1.6350 ca        1 MOL     -0.182943
    130 C44        -8.0310    0.0150   -2.5390 ca        1 MOL     -0.182943
    131 C45       -10.0010   -1.7100   -1.4880 ca        1 MOL     -0.273026
    132 C46        -9.4190    0.3500   -2.6390 ca        1 MOL     -0.273026
    133 C47       -10.3600   -0.4690   -1.9920 ca        1 MOL      0.387620
    134 O20       -11.6910   -0.2430   -2.0490 oh        1 MOL     -0.593872
    135 H56        -5.1870   -0.0250   -0.0290 hn        1 MOL      0.217616
    136 H57        -6.2590   -2.8420   -0.3940 h1        1 MOL     -0.054612
    137 H58        -6.2360   -2.6830   -2.6510 hc        1 MOL      0.086288
    138 H59        -5.5100   -1.0640   -2.5780 hc        1 MOL      0.086288
    139 H60        -8.3280   -3.0490   -1.1830 ha        1 MOL      0.139542
    140 H61        -7.2910    0.6890   -2.9360 ha        1 MOL      0.139542
    141 H62       -10.6990   -2.3270   -0.9400 ha        1 MOL      0.128757
    142 H63        -9.7310    1.3080   -3.0440 ha        1 MOL      0.128757
    143 H64       -12.2760   -0.9720   -1.8300 ho        1 MOL      0.411137
    144 N13        -4.2760   -3.9500   -0.8450 n         1 MOL     -0.727659
    145 C48        -3.0340   -4.7550   -1.0080 c3        1 MOL      0.279413
    146 C49        -1.9470   -4.7220    0.0960 c         1 MOL      0.368271
    147 O21        -1.3790   -5.7470    0.4370 o         1 MOL     -0.557213
    148 C50        -2.5560   -4.6310   -2.4680 c3        1 MOL      0.075975
    149 C51        -1.6340   -5.8300   -2.7870 c3        1 MOL     -0.467325
    150 C52        -0.8280   -5.5320   -4.0650 c         1 MOL      0.734876
    151 O22         0.2570   -4.9530   -3.9390 o         1 MOL     -0.706610
    152 O23        -1.3820   -5.6750   -5.1890 o         1 MOL     -0.706610
    153 H65        -5.1210   -4.4170   -1.1400 hn        1 MOL      0.365470
    154 H66        -3.2460   -5.8220   -0.9980 h1        1 MOL      0.008168
    155 H67        -1.9160   -3.7440   -2.4640 hc        1 MOL      0.035261
    156 H68        -3.3960   -4.6260   -3.1600 hc        1 MOL      0.035261
    157 H69        -2.2540   -6.7230   -2.7530 hc        1 MOL      0.083997
    158 H70        -0.8960   -6.0910   -2.0210 hc        1 MOL      0.083997
    159 N14        -1.7710   -3.6870    0.8900 n         1 MOL     -0.119886
    160 C53        -0.6630   -3.6340    1.9230 c3        1 MOL     -0.243834
    161 C54        -0.8640   -4.7080    3.0090 c         1 MOL      0.647293
    162 O24         0.1240   -5.0780    3.6220 o         1 MOL     -0.533216
    163 C55        -0.6380   -2.2610    2.5170 c3        1 MOL     -0.039969
    164 C56        -0.5370   -1.2280    1.3780 c3        1 MOL      0.389138
    165 C57         0.4870   -1.6800    0.2780 c         1 MOL      0.430538
    166 O25         1.6920   -1.8920    0.5910 o         1 MOL     -0.586558
    167 O26         0.1250   -1.7150   -0.9230 o         1 MOL     -0.586558
    168 H71        -2.2820   -2.8340    0.7280 hn        1 MOL      0.238726
    169 H72         0.1960   -3.9450    1.3330 h1        1 MOL      0.159362
    170 H73         0.1700   -2.2170    3.2560 hc        1 MOL      0.002767
    171 H74        -1.5780   -2.1050    3.0450 hc        1 MOL      0.002767
    172 H75        -0.2880   -0.2890    1.8710 hc        1 MOL     -0.132736
    173 H76        -1.5200   -1.1600    0.9290 hc        1 MOL     -0.132736
    174 N15        -2.1680   -5.1150    3.3000 n         1 MOL     -0.325646
    175 C58        -2.5480   -6.0320    4.4050 c3        1 MOL     -0.271087
    176 H77        -3.5760   -5.8310    4.7070 h1        1 MOL      0.103478
    177 H78        -2.4640   -7.0640    4.0660 h1        1 MOL      0.103478
    178 H79        -1.8830   -5.8720    5.2550 h1        1 MOL      0.103478
    179 H80        -2.9550   -4.8330    2.7370 hn        1 MOL      0.233215
    180 Ca1         3.7320   -2.2050   -0.9130 Ca        1 MOL      1.770258
    181 O27         3.8770   -4.8560   -1.2190 oh        1 MOL     -0.882078
    182 H81         4.6020   -5.4840   -1.3040 ho        1 MOL      0.423128
    183 H82         3.1220   -5.3920   -1.0050 ho        1 MOL      0.423128
    184 O28         1.6470   -3.0860   -2.4330 oh        1 MOL     -0.882078
    185 H83         0.9710   -2.7290   -1.8610 ho        1 MOL      0.423128
    186 H84         1.1980   -3.7430   -2.9640 ho        1 MOL      0.423128
@<TRIPOS>BOND
     1    1    2 1   
     2    1    4 1   
     3    1    5 1   
     4    1    6 1   
     5    2    3 2   
     6    2    7 1   
     7    7    8 1   
     8    7   15 1   
     9    8    9 1   
    10    8   11 1   
    11    8   16 1   
    12    9   10 2   
    13    9   19 1   
    14   11   12 1   
    15   11   17 1   
    16   11   18 1   
    17   12   13 1   
    18   12   14 1   
    19   19   20 1   
    20   19   27 1   
    21   20   21 1   
    22   20   23 1   
    23   20   28 1   
    24   21   22 2   
    25   21   38 1   
    26   23   24 1   
    27   23   25 1   
    28   23   29 1   
    29   24   26 1   
    30   24   30 1   
    31   24   31 1   
    32   25   32 1   
    33   25   33 1   
    34   25   34 1   
    35   26   35 1   
    36   26   36 1   
    37   26   37 1   
    38   38   39 1   
    39   38   46 1   
    40   39   40 1   
    41   39   42 1   
    42   39   47 1   
    43   40   41 2   
    44   40   50 1   
    45   42   43 1   
    46   42   48 1   
    47   42   49 1   
    48   43   44 1   
    49   43   45 1   
    50   50   51 1   
    51   50   54 1   
    52   51   52 1   
    53   51   55 1   
    54   51   56 1   
    55   52   53 2   
    56   52   57 1   
    57   57   58 1   
    58   57   65 1   
    59   58   59 1   
    60   58   61 1   
    61   58   66 1   
    62   59   60 2   
    63   59   69 1   
    64   61   62 1   
    65   61   67 1   
    66   61   68 1   
    67   62   63 1   
    68   62   64 1   
    69   69   70 1   
    70   69   73 1   
    71   70   71 1   
    72   70   74 1   
    73   70   75 1   
    74   71   72 2   
    75   71   76 1   
    76   76   77 1   
    77   76   85 1   
    78   77   78 1   
    79   77   80 1   
    80   77   86 1   
    81   78   79 2   
    82   78   93 1   
    83   80   81 1   
    84   80   87 1   
    85   80   88 1   
    86   81   82 1   
    87   81   89 1   
    88   81   90 1   
    89   82   83 1   
    90   82   84 2   
    91   83   91 1   
    92   83   92 1   
    93   93   94 1   
    94   93  100 1   
    95   94   95 1   
    96   94   97 1   
    97   94  101 1   
    98   95   96 2   
    99   95  109 1   
   100   97   98 1   
   101   97   99 1   
   102   97  102 1   
   103   98  103 1   
   104   98  104 1   
   105   98  105 1   
   106   99  106 1   
   107   99  107 1   
   108   99  108 1   
   109  109  110 1   
   110  109  117 1   
   111  110  111 1   
   112  110  113 1   
   113  110  118 1   
   114  111  112 2   
   115  111  123 1   
   116  113  114 1   
   117  113  119 1   
   118  113  120 1   
   119  114  115 1   
   120  114  116 2   
   121  115  121 1   
   122  115  122 1   
   123  123  124 1   
   124  123  135 1   
   125  124  125 1   
   126  124  127 1   
   127  124  136 1   
   128  125  126 2   
   129  125  144 1   
   130  127  128 1   
   131  127  137 1   
   132  127  138 1   
   133  128  129 ar  
   134  128  130 ar  
   135  129  131 ar  
   136  129  139 1   
   137  130  132 ar  
   138  130  140 1   
   139  131  133 ar  
   140  131  141 1   
   141  132  133 ar  
   142  132  142 1   
   143  133  134 1   
   144  134  143 1   
   145  144  145 1   
   146  144  153 1   
   147  145  146 1   
   148  145  148 1   
   149  145  154 1   
   150  146  147 2   
   151  146  159 1   
   152  148  149 1   
   153  148  155 1   
   154  148  156 1   
   155  149  150 1   
   156  149  157 1   
   157  149  158 1   
   158  150  151 1   
   159  150  152 1   
   160  159  160 1   
   161  159  168 1   
   162  160  161 1   
   163  160  163 1   
   164  160  169 1   
   165  161  162 2   
   166  161  174 1   
   167  163  164 1   
   168  163  170 1   
   169  163  171 1   
   170  164  165 1   
   171  164  172 1   
   172  164  173 1   
   173  165  166 1   
   174  165  167 1   
   175  174  175 1   
   176  174  179 1   
   177  175  176 1   
   178  175  177 1   
   179  175  178 1   
   180  181  182 1   
   181  181  183 1   
   182  184  185 1   
   183  184  186 1   
@<TRIPOS>SUBSTRUCTURE
     1 MOL         1 TEMP              0 ****  ****    0 ROOT
