@<TRIPOS>MOLECULE
MOL
  195   189     1     0     0
SMALL
resp


@<TRIPOS>ATOM
      1 C1         -3.4940    3.2930   -2.4140 c3        1 MOL     -0.403324
      2 C2         -2.5160    3.7750   -1.3780 c         1 MOL      0.764524
      3 O1         -1.6330    2.9610   -1.0040 o         1 MOL     -0.521838
      4 H1         -4.2220    2.6290   -1.9460 hc        1 MOL      0.088653
      5 H2         -4.0120    4.1470   -2.8520 hc        1 MOL      0.088653
      6 H3         -2.9600    2.7520   -3.1950 hc        1 MOL      0.088653
      7 N1         -2.4360    5.0830   -1.0440 n         1 MOL     -0.645552
      8 C3         -1.4420    5.5930   -0.0510 c3        1 MOL     -0.203459
      9 C4          0.0900    5.2800   -0.3770 c         1 MOL      0.889465
     10 O2          0.8400    4.9490    0.5430 o         1 MOL     -0.547576
     11 C5         -1.8960    5.3240    1.4020 c3        1 MOL     -0.454007
     12 C6         -3.3720    5.7250    1.5870 c         1 MOL      0.833416
     13 O3         -4.1880    4.8350    1.9550 o         1 MOL     -0.745183
     14 O4         -3.8040    6.9160    1.5240 o         1 MOL     -0.745183
     15 H4         -3.0920    5.7860   -1.3550 hn        1 MOL      0.304975
     16 H5         -1.5390    6.6760   -0.1970 h1        1 MOL      0.146046
     17 H6         -1.2720    6.0180    1.9780 hc        1 MOL      0.183364
     18 H7         -1.7790    4.2740    1.6740 hc        1 MOL      0.183364
     19 N2          0.5720    5.4370   -1.6410 n         1 MOL     -0.910318
     20 C7          1.9550    5.1560   -1.9800 c3        1 MOL      0.203280
     21 C8          2.9440    6.2880   -1.5960 c         1 MOL      0.466024
     22 O5          2.5230    7.4040   -1.3240 o         1 MOL     -0.572791
     23 C9          1.9760    4.8800   -3.4950 c3        1 MOL      0.170189
     24 C10         1.7470    6.1190   -4.4720 c3        1 MOL      0.159768
     25 C11         1.0670    3.6980   -3.7680 c3        1 MOL     -0.162131
     26 C12         2.0160    5.8540   -5.9840 c3        1 MOL     -0.285121
     27 H8         -0.1390    5.5300   -2.3610 hn        1 MOL      0.438944
     28 H9          2.3020    4.2490   -1.4830 h1        1 MOL      0.088880
     29 H10         3.0010    4.5830   -3.7560 hc        1 MOL      0.034760
     30 H11         2.3430    6.9690   -4.1260 hc        1 MOL     -0.048380
     31 H12         0.7010    6.3710   -4.3060 hc        1 MOL     -0.048380
     32 H13         1.2660    3.3440   -4.7680 hc        1 MOL      0.030322
     33 H14         1.3490    2.8990   -3.0790 hc        1 MOL      0.030322
     34 H15         0.0030    3.9390   -3.7660 hc        1 MOL      0.030322
     35 H16         3.0900    5.9900   -6.1360 hc        1 MOL      0.059288
     36 H17         1.6130    4.8980   -6.3220 hc        1 MOL      0.059288
     37 H18         1.4740    6.5930   -6.5660 hc        1 MOL      0.059288
     38 N3          4.2580    6.1070   -1.6600 n         1 MOL     -0.516631
     39 C13         5.0960    4.9330   -1.6430 c3        1 MOL      0.158745
     40 C14         5.9620    4.7590   -0.3960 c         1 MOL      0.617458
     41 O6          7.1380    5.1150   -0.4510 o         1 MOL     -0.523238
     42 C15         5.9140    4.9000   -2.9910 c3        1 MOL     -0.474895
     43 C16         6.5710    3.5020   -3.2560 c         1 MOL      0.809276
     44 O7          7.1620    3.2340   -4.3460 o         1 MOL     -0.735718
     45 O8          6.3320    2.5940   -2.4470 o         1 MOL     -0.735718
     46 H19         4.6690    7.0220   -1.5620 hn        1 MOL      0.309770
     47 H20         4.4500    4.0650   -1.7560 h1        1 MOL      0.005844
     48 H21         6.5770    5.7630   -2.9280 hc        1 MOL      0.095950
     49 H22         5.2320    4.9750   -3.8350 hc        1 MOL      0.095950
     50 N4          5.3220    4.4140    0.6700 n         1 MOL     -0.463811
     51 C17         6.0170    4.4100    1.9670 c3        1 MOL     -0.014586
     52 C18         6.6840    3.0510    2.3270 c         1 MOL      0.461591
     53 O9          7.9020    2.7610    2.2580 o         1 MOL     -0.516572
     54 H23         4.3580    4.1240    0.5790 hn        1 MOL      0.305392
     55 H24         5.2820    4.7050    2.7240 h1        1 MOL      0.059111
     56 H25         6.7830    5.1830    2.0060 h1        1 MOL      0.059111
     57 N5          5.7950    2.0430    2.4420 n         1 MOL     -0.434583
     58 C19         6.1760    0.7810    3.1570 c3        1 MOL      0.047076
     59 C20         7.0610   -0.2080    2.4100 c         1 MOL      0.300358
     60 O10         7.8000   -1.0090    3.0470 o         1 MOL     -0.510667
     61 C21         4.9420    0.1690    3.7340 c3        1 MOL     -0.164578
     62 C22         3.8010   -0.0380    2.7890 c         1 MOL      0.774436
     63 O11         3.0130    0.8720    2.5550 o         1 MOL     -0.705887
     64 O12         3.7550   -1.1250    2.2380 o         1 MOL     -0.705887
     65 H26         4.8300    2.3490    2.4150 hn        1 MOL      0.264776
     66 H27         6.7990    0.9510    4.0330 h1        1 MOL      0.091579
     67 H28         4.6730    0.8370    4.5580 hc        1 MOL      0.011906
     68 H29         5.2150   -0.7800    4.1950 hc        1 MOL      0.011906
     69 N6          7.0320   -0.1660    1.0810 n         1 MOL      0.030569
     70 C23         7.6020   -1.1290    0.1300 c3        1 MOL     -0.404321
     71 C24         7.1380   -2.5750    0.3820 c         1 MOL      0.567653
     72 O13         7.8350   -3.4280   -0.1600 o         1 MOL     -0.567412
     73 H30         6.4090    0.5300    0.7030 hn        1 MOL      0.223339
     74 H31         8.6880   -1.1240    0.2220 h1        1 MOL      0.166653
     75 H32         7.3290   -0.7320   -0.8550 h1        1 MOL      0.166653
     76 N7          6.0260   -2.7990    1.0780 n         1 MOL     -0.120838
     77 C25         5.4360   -4.0860    1.4430 c3        1 MOL     -0.086944
     78 C26         5.1620   -5.0370    0.2620 c         1 MOL      0.457300
     79 O14         5.0910   -6.2740    0.4560 o         1 MOL     -0.521099
     80 C27         6.2750   -4.6440    2.6510 c3        1 MOL      0.142981
     81 C28         5.8700   -4.0970    4.0410 c3        1 MOL     -0.252970
     82 C29         7.0070   -4.0390    5.0150 c         1 MOL      0.651544
     83 N8          7.6810   -2.9450    5.0040 n         1 MOL     -0.699193
     84 O15         7.2080   -4.9590    5.8350 o         1 MOL     -0.631868
     85 H33         5.4970   -1.9750    1.3080 hn        1 MOL      0.093862
     86 H34         4.4550   -3.9810    1.9100 h1        1 MOL      0.137341
     87 H35         7.3230   -4.3780    2.5240 hc        1 MOL     -0.010858
     88 H36         6.2760   -5.7290    2.6280 hc        1 MOL     -0.010858
     89 H37         5.0310   -4.6450    4.4890 hc        1 MOL      0.067005
     90 H38         5.4420   -3.1010    3.8960 hc        1 MOL      0.067005
     91 H39         7.6130   -2.2760    4.2510 hn        1 MOL      0.317482
     92 H40         8.4300   -2.6560    5.6120 hn        1 MOL      0.317482
     93 N9          4.8730   -4.4680   -0.9070 n         1 MOL     -0.343326
     94 C30         4.4520   -5.1800   -2.1250 c3        1 MOL     -0.091348
     95 C31         2.9820   -4.9020   -2.4790 c         1 MOL      0.643608
     96 O16         2.4420   -5.6640   -3.2330 o         1 MOL     -0.594529
     97 C32         5.3780   -4.9200   -3.3090 c3        1 MOL      0.287470
     98 C33         5.5070   -3.3820   -3.6750 c3        1 MOL     -0.374028
     99 C34         6.7570   -5.4250   -2.8640 c3        1 MOL     -0.374028
    100 H41         4.8010   -3.4700   -0.8320 hn        1 MOL      0.222768
    101 H42         4.3560   -6.2520   -1.9580 h1        1 MOL      0.095446
    102 H43         4.9940   -5.5300   -4.1290 hc        1 MOL     -0.027907
    103 H44         6.3650   -2.8540   -3.2630 hc        1 MOL      0.093777
    104 H45         5.4820   -3.2650   -4.7560 hc        1 MOL      0.093777
    105 H46         4.6850   -2.7810   -3.2970 hc        1 MOL      0.093777
    106 H47         7.3920   -5.4410   -3.7490 hc        1 MOL      0.093777
    107 H48         7.1720   -4.7860   -2.0860 hc        1 MOL      0.093777
    108 H49         6.6710   -6.4150   -2.4270 hc        1 MOL      0.093777
    109 N10         2.3340   -3.8570   -2.0380 n         1 MOL     -0.543195
    110 C35         1.0160   -3.3200   -2.5640 c3        1 MOL      0.335036
    111 C36         0.0960   -2.9370   -1.3680 c         1 MOL      0.470031
    112 O17         0.6840   -2.6770   -0.3190 o         1 MOL     -0.520093
    113 C37         1.1940   -2.1280   -3.4620 c3        1 MOL     -0.388984
    114 C38        -0.1710   -1.7800   -4.0500 c         1 MOL      0.691900
    115 N11        -0.6610   -0.6290   -3.7110 n         1 MOL     -0.789907
    116 O18        -0.8010   -2.6130   -4.6910 o         1 MOL     -0.571042
    117 H50         2.8370   -3.2400   -1.4150 hn        1 MOL      0.270803
    118 H51         0.5500   -4.1370   -3.1080 h1        1 MOL      0.023985
    119 H52         1.9480   -2.3830   -4.2050 hc        1 MOL      0.119652
    120 H53         1.6310   -1.2870   -2.9220 hc        1 MOL      0.119652
    121 H54        -0.2110   -0.0480   -3.0110 hn        1 MOL      0.363942
    122 H55        -1.6090   -0.4100   -3.9830 hn        1 MOL      0.363942
    123 N12        -1.2190   -3.0140   -1.5010 n         1 MOL     -0.461184
    124 C39        -2.1700   -3.0350   -0.4110 c3        1 MOL      0.102650
    125 C40        -3.5580   -3.3660   -0.9610 c         1 MOL      0.505019
    126 O19        -3.8590   -3.0580   -2.1350 o         1 MOL     -0.548867
    127 C41        -2.2860   -1.7060    0.3450 c3        1 MOL     -0.121787
    128 C42        -2.4570   -1.9040    1.8830 ca        1 MOL     -0.025858
    129 C43        -3.7250   -2.2270    2.4060 ca        1 MOL     -0.116174
    130 C44        -1.3480   -1.8000    2.7280 ca        1 MOL     -0.116174
    131 C45        -3.9040   -2.4750    3.7700 ca        1 MOL     -0.259230
    132 C46        -1.4780   -2.1200    4.1320 ca        1 MOL     -0.259230
    133 C47        -2.7520   -2.4570    4.6390 ca        1 MOL      0.314129
    134 O20        -2.9040   -2.8300    5.9550 oh        1 MOL     -0.513285
    135 H56        -1.5140   -3.1040   -2.4590 hn        1 MOL      0.266781
    136 H57        -1.8240   -3.8120    0.2730 h1        1 MOL      0.106026
    137 H58        -3.1630   -1.2070   -0.0790 hc        1 MOL      0.087727
    138 H59        -1.4480   -1.0530    0.0880 hc        1 MOL      0.087727
    139 H60        -4.5360   -2.3600    1.7000 ha        1 MOL      0.195005
    140 H61        -0.4140   -1.4390    2.3140 ha        1 MOL      0.195005
    141 H62        -4.8640   -2.7320    4.1930 ha        1 MOL      0.150073
    142 H63        -0.6280   -2.0280    4.7930 ha        1 MOL      0.150073
    143 H64        -3.7770   -2.8700    6.3520 ho        1 MOL      0.360127
    144 N13        -4.2810   -4.1280   -0.1950 n         1 MOL     -0.632506
    145 C48        -5.5260   -4.7190   -0.6120 c3        1 MOL      0.599239
    146 C49        -6.6800   -4.2940    0.3250 c         1 MOL      0.245046
    147 O21        -7.0670   -4.9920    1.2450 o         1 MOL     -0.509385
    148 C50        -5.3320   -6.2200   -0.6900 c3        1 MOL     -0.208697
    149 C51        -6.5730   -6.8840   -1.2620 c3        1 MOL     -0.253945
    150 C52        -6.5880   -8.4310   -1.1260 c         1 MOL      0.714951
    151 O22        -6.6890   -8.9260    0.0090 o         1 MOL     -0.714544
    152 O23        -6.7930   -9.0550   -2.2130 o         1 MOL     -0.714544
    153 H65        -3.9170   -4.3460    0.7220 hn        1 MOL      0.266120
    154 H66        -5.7580   -4.4360   -1.6330 h1        1 MOL      0.021267
    155 H67        -5.0870   -6.6260    0.3000 hc        1 MOL      0.060619
    156 H68        -4.4710   -6.4750   -1.3100 hc        1 MOL      0.060619
    157 H69        -6.8350   -6.5750   -2.2700 hc        1 MOL      0.065029
    158 H70        -7.5210   -6.4980   -0.9010 hc        1 MOL      0.065029
    159 N14        -7.2290   -3.0860    0.1880 n         1 MOL     -0.446954
    160 C53        -6.8610   -1.9690   -0.7600 c3        1 MOL     -0.053110
    161 C54        -7.4430   -2.2290   -2.1520 c         1 MOL      0.593122
    162 O24        -8.5990   -2.6100   -2.2740 o         1 MOL     -0.535564
    163 C55        -7.3090   -0.5620   -0.1800 c3        1 MOL     -0.200749
    164 C56        -6.3200   -0.1350    0.9450 c3        1 MOL      0.017634
    165 C57        -6.5170    1.3640    1.1690 c         1 MOL      0.896263
    166 O25        -5.5360    2.1190    1.4330 o         1 MOL     -0.838845
    167 O26        -7.6760    1.9020    1.3060 o         1 MOL     -0.838845
    168 H71        -7.8820   -2.9330    0.9550 hn        1 MOL      0.347587
    169 H72        -5.7740   -1.9290   -0.8240 h1        1 MOL      0.112008
    170 H73        -8.2940   -0.7550    0.2700 hc        1 MOL      0.062218
    171 H74        -7.3620    0.1570   -0.9960 hc        1 MOL      0.062218
    172 H75        -5.3270   -0.3830    0.5890 hc        1 MOL     -0.028376
    173 H76        -6.5040   -0.7180    1.8470 hc        1 MOL     -0.028376
    174 N15        -6.6480   -2.0240   -3.2210 n         1 MOL     -0.446420
    175 C58        -6.8820   -2.5370   -4.6030 c3        1 MOL     -0.073518
    176 H77        -7.9540   -2.6210   -4.7810 h1        1 MOL      0.067379
    177 H78        -6.4470   -1.8470   -5.3250 h1        1 MOL      0.067379
    178 H79        -6.4180   -3.5170   -4.7100 h1        1 MOL      0.067379
    179 H80        -5.7040   -1.6950   -3.0720 hn        1 MOL      0.284159
    180 Ca1        -6.7040    4.2810    2.0120 Ca        1 MOL      1.741349
    181 O27        -6.1950    6.1180    4.0180 oh        1 MOL     -0.826807
    182 H81        -5.3350    6.1990    4.4120 ho        1 MOL      0.400422
    183 H82        -6.5910    6.9880    4.1230 ho        1 MOL      0.400422
    184 O28        -9.0470    5.4290    2.7820 oh        1 MOL     -0.826807
    185 H83        -9.5380    4.6410    3.0010 ho        1 MOL      0.400422
    186 H84        -9.3670    6.0980    3.3820 ho        1 MOL      0.400422
    187 O29        -6.4540    6.8830    0.9460 oh        1 MOL     -0.826807
    188 H85        -6.4700    7.0960    0.0170 ho        1 MOL      0.400422
    189 H86        -5.5560    7.0620    1.2270 ho        1 MOL      0.400422
    190 O30        -6.6060    2.8810    4.3450 oh        1 MOL     -0.826807
    191 H87        -6.2510    2.0510    4.6580 ho        1 MOL      0.400422
    192 H88        -7.1020    3.2300    5.0940 ho        1 MOL      0.400422
    193 O31        -7.7330    4.4530   -0.4210 oh        1 MOL     -0.826807
    194 H89        -7.4510    3.9520   -1.1940 ho        1 MOL      0.400422
    195 H90        -8.1960    5.2080   -0.7900 ho        1 MOL      0.400422
@<TRIPOS>BOND
     1    1    2 1   
     2    1    4 1   
     3    1    5 1   
     4    1    6 1   
     5    2    3 2   
     6    2    7 1   
     7    7    8 1   
     8    7   15 1   
     9    8    9 1   
    10    8   11 1   
    11    8   16 1   
    12    9   10 2   
    13    9   19 1   
    14   11   12 1   
    15   11   17 1   
    16   11   18 1   
    17   12   13 1   
    18   12   14 1   
    19   19   20 1   
    20   19   27 1   
    21   20   21 1   
    22   20   23 1   
    23   20   28 1   
    24   21   22 2   
    25   21   38 1   
    26   23   24 1   
    27   23   25 1   
    28   23   29 1   
    29   24   26 1   
    30   24   30 1   
    31   24   31 1   
    32   25   32 1   
    33   25   33 1   
    34   25   34 1   
    35   26   35 1   
    36   26   36 1   
    37   26   37 1   
    38   38   39 1   
    39   38   46 1   
    40   39   40 1   
    41   39   42 1   
    42   39   47 1   
    43   40   41 2   
    44   40   50 1   
    45   42   43 1   
    46   42   48 1   
    47   42   49 1   
    48   43   44 1   
    49   43   45 1   
    50   50   51 1   
    51   50   54 1   
    52   51   52 1   
    53   51   55 1   
    54   51   56 1   
    55   52   53 2   
    56   52   57 1   
    57   57   58 1   
    58   57   65 1   
    59   58   59 1   
    60   58   61 1   
    61   58   66 1   
    62   59   60 2   
    63   59   69 1   
    64   61   62 1   
    65   61   67 1   
    66   61   68 1   
    67   62   63 1   
    68   62   64 1   
    69   69   70 1   
    70   69   73 1   
    71   70   71 1   
    72   70   74 1   
    73   70   75 1   
    74   71   72 2   
    75   71   76 1   
    76   76   77 1   
    77   76   85 1   
    78   77   78 1   
    79   77   80 1   
    80   77   86 1   
    81   78   79 2   
    82   78   93 1   
    83   80   81 1   
    84   80   87 1   
    85   80   88 1   
    86   81   82 1   
    87   81   89 1   
    88   81   90 1   
    89   82   83 1   
    90   82   84 2   
    91   83   91 1   
    92   83   92 1   
    93   93   94 1   
    94   93  100 1   
    95   94   95 1   
    96   94   97 1   
    97   94  101 1   
    98   95   96 2   
    99   95  109 1   
   100   97   98 1   
   101   97   99 1   
   102   97  102 1   
   103   98  103 1   
   104   98  104 1   
   105   98  105 1   
   106   99  106 1   
   107   99  107 1   
   108   99  108 1   
   109  109  110 1   
   110  109  117 1   
   111  110  111 1   
   112  110  113 1   
   113  110  118 1   
   114  111  112 2   
   115  111  123 1   
   116  113  114 1   
   117  113  119 1   
   118  113  120 1   
   119  114  115 1   
   120  114  116 2   
   121  115  121 1   
   122  115  122 1   
   123  123  124 1   
   124  123  135 1   
   125  124  125 1   
   126  124  127 1   
   127  124  136 1   
   128  125  126 2   
   129  125  144 1   
   130  127  128 1   
   131  127  137 1   
   132  127  138 1   
   133  128  129 ar  
   134  128  130 ar  
   135  129  131 ar  
   136  129  139 1   
   137  130  132 ar  
   138  130  140 1   
   139  131  133 ar  
   140  131  141 1   
   141  132  133 ar  
   142  132  142 1   
   143  133  134 1   
   144  134  143 1   
   145  144  145 1   
   146  144  153 1   
   147  145  146 1   
   148  145  148 1   
   149  145  154 1   
   150  146  147 2   
   151  146  159 1   
   152  148  149 1   
   153  148  155 1   
   154  148  156 1   
   155  149  150 1   
   156  149  157 1   
   157  149  158 1   
   158  150  151 1   
   159  150  152 1   
   160  159  160 1   
   161  159  168 1   
   162  160  161 1   
   163  160  163 1   
   164  160  169 1   
   165  161  162 2   
   166  161  174 1   
   167  163  164 1   
   168  163  170 1   
   169  163  171 1   
   170  164  165 1   
   171  164  172 1   
   172  164  173 1   
   173  165  166 1   
   174  165  167 1   
   175  174  175 1   
   176  174  179 1   
   177  175  176 1   
   178  175  177 1   
   179  175  178 1   
   180  181  182 1   
   181  181  183 1   
   182  184  185 1   
   183  184  186 1   
   184  187  188 1   
   185  187  189 1   
   186  190  191 1   
   187  190  192 1   
   188  193  194 1   
   189  193  195 1   
@<TRIPOS>SUBSTRUCTURE
     1 MOL         1 TEMP              0 ****  ****    0 ROOT
