@<TRIPOS>MOLECULE
MOL
  178   175     1     0     0
SMALL
resp


@<TRIPOS>ATOM
      1 C1          4.5500   -2.3340    2.7120 c3        1 MOL     -0.373016
      2 C2          5.8340   -1.6680    2.4870 c         1 MOL      0.623830
      3 O1          5.9150   -0.4810    2.1330 o         1 MOL     -0.600161
      4 H1          3.9270   -1.7130    3.3540 hc        1 MOL      0.102938
      5 H2          4.0470   -2.4860    1.7570 hc        1 MOL      0.102938
      6 H3          4.7190   -3.2980    3.1920 hc        1 MOL      0.102938
      7 N1          6.9520   -2.4200    2.5780 n         1 MOL     -0.499775
      8 C3          8.3260   -1.9520    2.3760 c3        1 MOL      0.120966
      9 C4          8.5610   -1.4680    0.8860 c         1 MOL      0.509899
     10 O2          8.4990   -2.2600   -0.0520 o         1 MOL     -0.518209
     11 C5          9.2890   -3.0810    2.7690 c3        1 MOL     -0.244921
     12 C6         10.7320   -2.7650    2.4720 c         1 MOL      0.782868
     13 O3         10.9850   -1.5890    2.1860 o         1 MOL     -0.746111
     14 O4         11.5660   -3.6780    2.5930 o         1 MOL     -0.746111
     15 H4          6.8760   -3.3670    2.8990 hn        1 MOL      0.292210
     16 H5          8.5920   -1.2090    3.1260 h1        1 MOL      0.035693
     17 H6          9.0900   -3.9250    2.1020 hc        1 MOL      0.024326
     18 H7          9.0320   -3.4370    3.7610 hc        1 MOL      0.024326
     19 N2          8.7440   -0.1560    0.7430 n         1 MOL     -0.221153
     20 C7          8.9970    0.4470   -0.5590 c3        1 MOL      0.059587
     21 C8          7.7030    0.4230   -1.4470 c         1 MOL      0.528487
     22 O5          7.7890    0.4550   -2.7100 o         1 MOL     -0.585879
     23 C9          9.4180    1.8930   -0.3180 c3        1 MOL     -0.215310
     24 H8          8.6280    0.3250    1.6150 hn        1 MOL      0.190234
     25 H9          9.7910   -0.0740   -1.0830 h1        1 MOL      0.100247
     26 H10        10.4100    1.9940    0.1180 hc        1 MOL      0.054389
     27 H11         9.4030    2.5500   -1.2000 hc        1 MOL      0.054389
     28 H12         8.7350    2.3870    0.3710 hc        1 MOL      0.054389
     29 N3          6.5090    0.2010   -0.8700 n         1 MOL     -0.589164
     30 C10         5.2470   -0.2730   -1.4950 c3        1 MOL      0.399433
     31 C11         4.7810    0.5060   -2.7270 c         1 MOL      0.229668
     32 O6          4.0950   -0.0600   -3.6420 o         1 MOL     -0.449370
     33 C12         5.3780   -1.8230   -1.6500 c3        1 MOL     -0.009749
     34 C13         4.0880   -2.5880   -1.7390 c         1 MOL      0.710629
     35 O7          4.1580   -3.8610   -1.8080 o         1 MOL     -0.814130
     36 O8          3.0050   -2.0980   -1.7210 o         1 MOL     -0.814130
     37 H13         6.4500    0.2550    0.1330 hn        1 MOL      0.243109
     38 H14         4.4240   -0.1350   -0.7940 h1        1 MOL      0.041235
     39 H15         5.8760   -2.1510   -0.7370 hc        1 MOL      0.010765
     40 H16         6.1050   -2.1130   -2.4120 hc        1 MOL      0.010765
     41 N4          5.1340    1.7930   -2.7530 n         1 MOL     -0.018528
     42 C14         5.0300    2.7630   -3.8210 c3        1 MOL     -0.307431
     43 C15         3.6820    3.4350   -4.0900 c         1 MOL      0.522933
     44 O9          3.4800    3.8990   -5.1860 o         1 MOL     -0.521593
     45 H17         5.4870    2.1040   -1.8530 hn        1 MOL      0.157863
     46 H18         5.2180    2.2180   -4.7430 h1        1 MOL      0.133184
     47 H19         5.7980    3.5120   -3.6350 h1        1 MOL      0.133184
     48 N5          2.7250    3.2870   -3.1050 n         1 MOL     -0.339201
     49 C16         1.4610    3.9700   -3.0680 c3        1 MOL      0.289599
     50 C17         1.4540    5.0100   -1.9140 c         1 MOL      0.388715
     51 O10         1.8840    4.6810   -0.8050 o         1 MOL     -0.494715
     52 C18         0.3000    2.9760   -3.0000 c3        1 MOL     -0.330340
     53 C19        -1.0110    3.5280   -2.5760 c         1 MOL      0.547870
     54 N6         -1.3250    3.2260   -1.3220 n         1 MOL     -0.582176
     55 O11        -1.8130    4.1290   -3.3340 o         1 MOL     -0.570225
     56 H20         3.0060    2.7680   -2.2940 hn        1 MOL      0.161003
     57 H21         1.3720    4.5630   -3.9810 h1        1 MOL     -0.017772
     58 H22         0.5550    2.1670   -2.3110 hc        1 MOL      0.139962
     59 H23         0.2750    2.5320   -3.9860 hc        1 MOL      0.139962
     60 H24        -0.6850    2.7300   -0.7160 hn        1 MOL      0.302187
     61 H25        -2.3000    3.3040   -1.0410 hn        1 MOL      0.302187
     62 N7          0.7940    6.1770   -2.1010 n         1 MOL     -0.416056
     63 C20         0.6210    7.2950   -1.1890 c3        1 MOL     -0.033260
     64 C21        -0.6220    7.0650   -0.3680 c         1 MOL      0.459855
     65 O12        -1.6810    6.9530   -1.0170 o         1 MOL     -0.480528
     66 H26         0.2160    6.2020   -2.9290 hn        1 MOL      0.301309
     67 H27         0.5240    8.2400   -1.7180 h1        1 MOL      0.074665
     68 H28         1.5050    7.4550   -0.5710 h1        1 MOL      0.074665
     69 N8         -0.5870    7.1100    0.9160 n         1 MOL     -0.348558
     70 C22        -1.8240    6.9980    1.7400 c3        1 MOL     -0.244236
     71 C23        -2.3450    5.5800    2.0930 c         1 MOL      0.617738
     72 O13        -3.5540    5.3550    2.1560 o         1 MOL     -0.555323
     73 C24        -1.6440    7.7730    2.9990 c3        1 MOL      0.677773
     74 C25        -0.6600    7.2820    4.0540 c3        1 MOL     -0.420730
     75 O14        -1.4120    9.1150    2.6910 oh        1 MOL     -0.681523
     76 H29         0.2500    7.4250    1.3700 hn        1 MOL      0.247513
     77 H30        -2.6070    7.5000    1.1660 h1        1 MOL      0.118077
     78 H31        -2.6350    7.7570    3.4540 h1        1 MOL     -0.027806
     79 H32        -0.5880    9.1610    2.2120 ho        1 MOL      0.370506
     80 H33        -0.2140    6.3740    3.6500 hc        1 MOL      0.085216
     81 H34         0.1240    8.0260    4.2380 hc        1 MOL      0.085216
     82 H35        -1.1720    7.0490    4.9880 hc        1 MOL      0.085216
     83 N9         -1.4150    4.5650    2.1850 n         1 MOL     -0.411332
     84 C26        -1.7750    3.2000    2.6340 c3        1 MOL      0.189719
     85 C27        -1.4000    2.1380    1.5960 c         1 MOL      0.284680
     86 O15        -0.2690    2.1940    1.0610 o         1 MOL     -0.466338
     87 C28        -1.2370    2.9780    4.0680 c3        1 MOL      0.110879
     88 C29        -1.8600    3.9810    5.0200 c3        1 MOL     -0.236781
     89 C30        -1.2310    1.4740    4.4900 c3        1 MOL     -0.125551
     90 C31        -3.3430    3.8740    5.3330 c3        1 MOL     -0.304708
     91 H36        -0.4250    4.7480    2.1080 hn        1 MOL      0.248085
     92 H37        -2.8560    3.1040    2.5350 h1        1 MOL      0.045978
     93 H38        -0.1870    3.2380    4.0110 hc        1 MOL      0.006522
     94 H39        -1.6840    4.9680    4.5960 hc        1 MOL      0.096324
     95 H40        -1.3620    3.9150    5.9860 hc        1 MOL      0.096324
     96 H41        -2.1990    1.0070    4.3080 hc        1 MOL      0.036876
     97 H42        -0.4660    0.9710    3.8990 hc        1 MOL      0.036876
     98 H43        -1.0420    1.4880    5.5650 hc        1 MOL      0.036876
     99 H44        -3.5180    3.0480    6.0310 hc        1 MOL      0.083666
    100 H45        -3.5830    4.8040    5.8540 hc        1 MOL      0.083666
    101 H46        -3.9450    3.7060    4.4460 hc        1 MOL      0.083666
    102 N10        -2.1590    1.1220    1.4220 n         1 MOL     -0.361183
    103 C32        -1.9520    0.0820    0.4210 c3        1 MOL      0.150676
    104 C33        -3.2590   -0.5110   -0.2310 c         1 MOL      0.565625
    105 O16        -3.3860   -1.7090   -0.5490 o         1 MOL     -0.499793
    106 C34        -1.1910   -1.0240    1.1850 c3        1 MOL      0.185177
    107 C35        -0.4820   -2.0500    0.2660 c         1 MOL      0.429931
    108 O17         0.0250   -1.5730   -0.7920 o         1 MOL     -0.620144
    109 O18         0.0110   -3.0550    0.7690 o         1 MOL     -0.620144
    110 H47        -3.0370    1.1390    1.9380 hn        1 MOL      0.256090
    111 H48        -1.5010    0.5620   -0.4450 h1        1 MOL     -0.020535
    112 H49        -1.9040   -1.6450    1.7250 hc        1 MOL     -0.033002
    113 H50        -0.4830   -0.6580    1.9300 hc        1 MOL     -0.033002
    114 N11        -4.3610    0.3100   -0.2790 n         1 MOL     -0.523802
    115 C36        -5.6160   -0.0460   -0.9830 c3        1 MOL      0.256456
    116 C37        -6.3790   -1.0610   -0.0520 c         1 MOL      0.313574
    117 O19        -6.3970   -0.7990    1.1100 o         1 MOL     -0.530933
    118 C38        -6.5040    1.2120   -1.2160 c3        1 MOL     -0.282525
    119 C39        -7.7750    0.8700   -1.9560 ca        1 MOL      0.156632
    120 C40        -7.7580    0.6260   -3.3230 ca        1 MOL     -0.218407
    121 C41        -8.9630    0.5470   -1.2960 ca        1 MOL     -0.218407
    122 C42        -8.8920    0.2500   -4.0460 ca        1 MOL     -0.082689
    123 C43       -10.1580    0.1540   -2.0050 ca        1 MOL     -0.082689
    124 C44       -10.0670    0.0490   -3.3790 ca        1 MOL     -0.111193
    125 H51        -4.3110    1.2260    0.1450 hn        1 MOL      0.264269
    126 H52        -5.3500   -0.5430   -1.9160 h1        1 MOL      0.020975
    127 H53        -5.8920    1.9810   -1.6690 hc        1 MOL      0.108226
    128 H54        -6.7290    1.6110   -0.2270 hc        1 MOL      0.108226
    129 H55        -6.8480    0.8080   -3.8830 ha        1 MOL      0.132915
    130 H56        -9.0520    0.6090   -0.2180 ha        1 MOL      0.132915
    131 H57        -8.7760    0.0040   -5.0940 ha        1 MOL      0.106852
    132 H58       -11.1130   -0.0470   -1.5610 ha        1 MOL      0.106852
    133 H59       -10.9630   -0.2890   -3.8630 ha        1 MOL      0.091378
    134 N12        -6.8630   -2.2390   -0.5850 n         1 MOL      0.183816
    135 C45        -7.5890   -3.1980    0.2280 c3        1 MOL     -0.219537
    136 C46        -6.6490   -4.1880    0.9210 c         1 MOL      0.655746
    137 O20        -7.1630   -5.0700    1.5360 o         1 MOL     -0.525017
    138 C47        -8.6110   -3.8680   -0.7230 c3        1 MOL     -0.067468
    139 C48        -7.7750   -3.8380   -1.9920 c3        1 MOL     -0.009466
    140 C49        -7.0630   -2.5170   -1.9780 c3        1 MOL     -0.134540
    141 H60        -8.0320   -2.6430    1.0450 h1        1 MOL      0.087878
    142 H61        -8.7830   -4.9150   -0.4740 hc        1 MOL      0.046837
    143 H62        -9.4600   -3.1910   -0.8180 hc        1 MOL      0.046837
    144 H63        -6.9730   -4.5730   -1.9380 hc        1 MOL      0.022612
    145 H64        -8.3870   -3.9130   -2.8920 hc        1 MOL      0.022612
    146 H65        -6.0980   -2.6190   -2.4720 h1        1 MOL      0.059484
    147 H66        -7.6900   -1.7940   -2.5160 h1        1 MOL      0.059484
    148 N13        -5.2960   -4.1050    0.8300 n         1 MOL     -0.429770
    149 C50        -4.3840   -4.9860    1.5320 c3        1 MOL     -0.227729
    150 C51        -4.5170   -4.8230    3.0820 c         1 MOL      0.531106
    151 O21        -5.1040   -5.6660    3.7760 o         1 MOL     -0.526857
    152 C52        -3.0190   -4.7950    0.9210 c3        1 MOL      0.679345
    153 C53        -2.6440   -5.8110   -0.1980 c3        1 MOL     -0.183194
    154 C54        -1.2530   -5.5700   -0.7690 c         1 MOL      0.693766
    155 O22        -0.2380   -5.9920   -0.0980 o         1 MOL     -0.761143
    156 O23        -0.9830   -4.8720   -1.7740 o         1 MOL     -0.761143
    157 H67        -4.8480   -3.3800    0.2780 hn        1 MOL      0.202018
    158 H68        -4.6690   -6.0240    1.4070 h1        1 MOL      0.089674
    159 H69        -2.2470   -4.8820    1.6760 hc        1 MOL     -0.187204
    160 H70        -2.9000   -3.8090    0.4640 hc        1 MOL     -0.187204
    161 H71        -3.3990   -5.6550   -0.9690 hc        1 MOL     -0.003451
    162 H72        -2.7090   -6.8240    0.2020 hc        1 MOL     -0.003451
    163 N14        -4.0350   -3.6650    3.5120 n         1 MOL     -0.327950
    164 C55        -4.0650   -3.2150    4.9470 c3        1 MOL     -0.309716
    165 H73        -4.8650   -3.7360    5.4740 h1        1 MOL      0.124478
    166 H74        -3.1110   -3.4440    5.4200 h1        1 MOL      0.124478
    167 H75        -4.2440   -2.1400    4.9870 h1        1 MOL      0.124478
    168 H76        -3.6890   -2.9550    2.8790 hn        1 MOL      0.295345
    169 Ca1         1.4460   -4.0910   -1.1700 Ca        1 MOL      1.766812
    170 O24         2.2780   -6.3090   -2.8860 oh        1 MOL     -0.802158
    171 H77         2.5440   -6.2130   -3.7970 ho        1 MOL      0.400216
    172 H78         3.0750   -6.5660   -2.4240 ho        1 MOL      0.400216
    173 O25         1.0560   -3.1280   -3.5360 oh        1 MOL     -0.802158
    174 H79         1.1680   -2.1810   -3.6710 ho        1 MOL      0.400216
    175 H80         0.6640   -3.4410   -4.3520 ho        1 MOL      0.400216
    176 O26         2.6690   -5.3820    0.9640 oh        1 MOL     -0.802158
    177 H81         2.6060   -5.4170    1.9230 ho        1 MOL      0.400216
    178 H82         3.4720   -5.8660    0.7680 ho        1 MOL      0.400216
@<TRIPOS>BOND
     1    1    2 1   
     2    1    4 1   
     3    1    5 1   
     4    1    6 1   
     5    2    3 2   
     6    2    7 1   
     7    7    8 1   
     8    7   15 1   
     9    8    9 1   
    10    8   11 1   
    11    8   16 1   
    12    9   10 2   
    13    9   19 1   
    14   11   12 1   
    15   11   17 1   
    16   11   18 1   
    17   12   13 1   
    18   12   14 1   
    19   19   20 1   
    20   19   24 1   
    21   20   21 1   
    22   20   23 1   
    23   20   25 1   
    24   21   22 2   
    25   21   29 1   
    26   23   26 1   
    27   23   27 1   
    28   23   28 1   
    29   29   30 1   
    30   29   37 1   
    31   30   31 1   
    32   30   33 1   
    33   30   38 1   
    34   31   32 2   
    35   31   41 1   
    36   33   34 1   
    37   33   39 1   
    38   33   40 1   
    39   34   35 1   
    40   34   36 1   
    41   41   42 1   
    42   41   45 1   
    43   42   43 1   
    44   42   46 1   
    45   42   47 1   
    46   43   44 2   
    47   43   48 1   
    48   48   49 1   
    49   48   56 1   
    50   49   50 1   
    51   49   52 1   
    52   49   57 1   
    53   50   51 2   
    54   50   62 1   
    55   52   53 1   
    56   52   58 1   
    57   52   59 1   
    58   53   54 1   
    59   53   55 2   
    60   54   60 1   
    61   54   61 1   
    62   62   63 1   
    63   62   66 1   
    64   63   64 1   
    65   63   67 1   
    66   63   68 1   
    67   64   65 2   
    68   64   69 1   
    69   69   70 1   
    70   69   76 1   
    71   70   71 1   
    72   70   73 1   
    73   70   77 1   
    74   71   72 2   
    75   71   83 1   
    76   73   74 1   
    77   73   75 1   
    78   73   78 1   
    79   74   80 1   
    80   74   81 1   
    81   74   82 1   
    82   75   79 1   
    83   83   84 1   
    84   83   91 1   
    85   84   85 1   
    86   84   87 1   
    87   84   92 1   
    88   85   86 2   
    89   85  102 1   
    90   87   88 1   
    91   87   89 1   
    92   87   93 1   
    93   88   90 1   
    94   88   94 1   
    95   88   95 1   
    96   89   96 1   
    97   89   97 1   
    98   89   98 1   
    99   90   99 1   
   100   90  100 1   
   101   90  101 1   
   102  102  103 1   
   103  102  110 1   
   104  103  104 1   
   105  103  106 1   
   106  103  111 1   
   107  104  105 2   
   108  104  114 1   
   109  106  107 1   
   110  106  112 1   
   111  106  113 1   
   112  107  108 1   
   113  107  109 1   
   114  114  115 1   
   115  114  125 1   
   116  115  116 1   
   117  115  118 1   
   118  115  126 1   
   119  116  117 2   
   120  116  134 1   
   121  118  119 1   
   122  118  127 1   
   123  118  128 1   
   124  119  120 ar  
   125  119  121 ar  
   126  120  122 ar  
   127  120  129 1   
   128  121  123 ar  
   129  121  130 1   
   130  122  124 ar  
   131  122  131 1   
   132  123  124 ar  
   133  123  132 1   
   134  124  133 1   
   135  134  135 1   
   136  134  140 1   
   137  135  136 1   
   138  135  138 1   
   139  135  141 1   
   140  136  137 2   
   141  136  148 1   
   142  138  139 1   
   143  138  142 1   
   144  138  143 1   
   145  139  140 1   
   146  139  144 1   
   147  139  145 1   
   148  140  146 1   
   149  140  147 1   
   150  148  149 1   
   151  148  157 1   
   152  149  150 1   
   153  149  152 1   
   154  149  158 1   
   155  150  151 2   
   156  150  163 1   
   157  152  153 1   
   158  152  159 1   
   159  152  160 1   
   160  153  154 1   
   161  153  161 1   
   162  153  162 1   
   163  154  155 1   
   164  154  156 1   
   165  163  164 1   
   166  163  168 1   
   167  164  165 1   
   168  164  166 1   
   169  164  167 1   
   170  170  171 1   
   171  170  172 1   
   172  173  174 1   
   173  173  175 1   
   174  176  177 1   
   175  176  178 1   
@<TRIPOS>SUBSTRUCTURE
     1 MOL         1 TEMP              0 ****  ****    0 ROOT
