@<TRIPOS>MOLECULE
MOL
  195   189     1     0     0
SMALL
resp


@<TRIPOS>ATOM
      1 C1         -3.7520   -3.1380    2.7810 c3        1 MOL     -0.197652
      2 C2         -2.7140   -3.3510    1.5770 c         1 MOL      0.405060
      3 O1         -2.2870   -2.3940    0.8790 o         1 MOL     -0.383399
      4 H1         -4.6170   -3.7840    2.6330 hc        1 MOL      0.047538
      5 H2         -3.2690   -3.3880    3.7260 hc        1 MOL      0.047538
      6 H3         -4.0760   -2.0980    2.8020 hc        1 MOL      0.047538
      7 N1         -2.3430   -4.6390    1.4010 n         1 MOL     -0.585073
      8 C3         -1.3080   -5.0400    0.4220 c3        1 MOL     -0.111170
      9 C4          0.1580   -4.4520    0.7450 c         1 MOL      0.724433
     10 O2          0.9060   -4.1940   -0.1570 o         1 MOL     -0.580295
     11 C5         -1.8540   -4.8690   -1.0460 c3        1 MOL     -0.227545
     12 C6         -2.9850   -5.7420   -1.3580 c         1 MOL      0.634863
     13 O3         -4.1390   -5.2580   -1.5620 o         1 MOL     -0.664186
     14 O4         -2.7650   -6.9520   -1.5830 o         1 MOL     -0.664186
     15 H4         -2.7860   -5.3340    1.9950 hn        1 MOL      0.382779
     16 H5         -1.1250   -6.1110    0.4970 h1        1 MOL      0.124191
     17 H6         -1.0240   -5.1410   -1.6960 hc        1 MOL      0.103356
     18 H7         -2.1080   -3.8310   -1.2210 hc        1 MOL      0.103356
     19 N2          0.4840   -4.1700    1.9680 n         1 MOL     -0.414927
     20 C7          1.8520   -3.6990    2.4200 c3        1 MOL     -0.485255
     21 C8          2.8660   -4.8040    2.8020 c         1 MOL      0.735800
     22 O5          2.5310   -5.9070    3.1840 o         1 MOL     -0.613001
     23 C9          1.6860   -2.6930    3.5950 c3        1 MOL      0.097860
     24 C10         0.9050   -3.1850    4.8280 c3        1 MOL      0.175497
     25 C11         1.0610   -1.3980    2.9860 c3        1 MOL     -0.339927
     26 C12         0.7710   -2.0950    5.8920 c3        1 MOL     -0.378185
     27 H8         -0.1720   -4.2160    2.7380 hn        1 MOL      0.262057
     28 H9          2.1570   -3.1960    1.4980 h1        1 MOL      0.265339
     29 H10         2.6900   -2.4610    3.9370 hc        1 MOL      0.053963
     30 H11         1.3730   -4.0230    5.3330 hc        1 MOL      0.007855
     31 H12        -0.0960   -3.4610    4.4850 hc        1 MOL      0.007855
     32 H13         1.2340   -0.6050    3.7120 hc        1 MOL      0.108930
     33 H14         1.5210   -1.1020    2.0380 hc        1 MOL      0.108930
     34 H15        -0.0230   -1.4570    2.8600 hc        1 MOL      0.108930
     35 H16         0.0550   -1.3990    5.4600 hc        1 MOL      0.088650
     36 H17         0.4580   -2.6160    6.7940 hc        1 MOL      0.088650
     37 H18         1.7400   -1.6130    5.9980 hc        1 MOL      0.088650
     38 N3          4.1610   -4.5800    2.6570 n         1 MOL     -0.487798
     39 C13         4.8600   -3.3610    2.1870 c3        1 MOL     -0.039320
     40 C14         4.8190   -3.1280    0.6320 c         1 MOL      0.384028
     41 O6          4.7350   -2.0050    0.1570 o         1 MOL     -0.511465
     42 C15         6.3730   -3.4700    2.6000 c3        1 MOL      0.056736
     43 C16         7.1290   -4.7370    2.2240 c         1 MOL      0.599656
     44 O7          6.4700   -5.8170    2.2060 o         1 MOL     -0.670708
     45 O8          8.3840   -4.6700    2.1290 o         1 MOL     -0.670708
     46 H19         4.7280   -5.4080    2.8210 hn        1 MOL      0.266169
     47 H20         4.5320   -2.4810    2.7520 h1        1 MOL      0.069551
     48 H21         6.4040   -3.4000    3.6890 hc        1 MOL     -0.014752
     49 H22         6.8180   -2.5480    2.2290 hc        1 MOL     -0.014752
     50 N4          4.9740   -4.1750   -0.1680 n         1 MOL     -0.176003
     51 C17         5.1960   -4.0120   -1.5970 c3        1 MOL     -0.278010
     52 C18         6.4320   -3.2070   -1.9820 c         1 MOL      0.541651
     53 O9          7.4940   -3.6020   -1.5500 o         1 MOL     -0.509469
     54 H23         4.8830   -5.1190    0.1860 hn        1 MOL      0.264556
     55 H24         4.2700   -3.7450   -2.1200 h1        1 MOL      0.117151
     56 H25         5.3920   -5.0160   -1.9720 h1        1 MOL      0.117151
     57 N5          6.2410   -2.0730   -2.6140 n         1 MOL     -0.498480
     58 C19         7.3270   -1.1160   -2.8130 c3        1 MOL      0.090970
     59 C20         7.8860   -0.5620   -1.5150 c         1 MOL      0.308835
     60 O10         8.9930   -0.0150   -1.4870 o         1 MOL     -0.541818
     61 C21         6.8720   -0.1240   -3.8080 c3        1 MOL     -0.236884
     62 C22         5.4940    0.4150   -3.5560 c         1 MOL      0.758222
     63 O11         5.3000    0.8510   -2.3980 o         1 MOL     -0.715684
     64 O12         4.5740    0.4650   -4.4350 o         1 MOL     -0.715684
     65 H26         5.3040   -1.7450   -2.7850 hn        1 MOL      0.309646
     66 H27         8.1580   -1.6580   -3.2650 h1        1 MOL      0.094686
     67 H28         6.9200   -0.5060   -4.8230 hc        1 MOL      0.030629
     68 H29         7.5170    0.7510   -3.8170 hc        1 MOL      0.030629
     69 N6          7.1100   -0.6100   -0.4120 n         1 MOL      0.031073
     70 C23         7.4160    0.0740    0.8510 c3        1 MOL     -0.236367
     71 C24         7.2680    1.6160    0.6900 c         1 MOL      0.373241
     72 O13         7.7280    2.3670    1.5460 o         1 MOL     -0.570629
     73 H30         6.2290   -1.0980   -0.4290 hn        1 MOL      0.194521
     74 H31         8.4130   -0.2360    1.1620 h1        1 MOL      0.112147
     75 H32         6.6320   -0.1680    1.5630 h1        1 MOL      0.112147
     76 N7          6.7830    2.1490   -0.4230 n         1 MOL      0.256693
     77 C25         6.5630    3.5590   -0.7130 c3        1 MOL      0.075908
     78 C26         5.6720    4.3860    0.2760 c         1 MOL      0.436122
     79 O14         5.8180    5.6050    0.4600 o         1 MOL     -0.511178
     80 C27         7.9070    4.2150   -1.0550 c3        1 MOL     -0.185970
     81 C28         8.5950    3.4520   -2.3300 c3        1 MOL     -0.041338
     82 C29         9.7890    4.2190   -2.9330 c         1 MOL      0.680091
     83 N8         10.4960    3.8380   -3.9540 n         1 MOL     -0.844571
     84 O15        10.0470    5.3030   -2.4600 o         1 MOL     -0.591869
     85 H33         6.3160    1.4910   -1.0390 hn        1 MOL     -0.048802
     86 H34         5.9940    3.5170   -1.6530 h1        1 MOL      0.064340
     87 H35         8.5930    4.1970   -0.2100 hc        1 MOL      0.059385
     88 H36         7.6890    5.2050   -1.4640 hc        1 MOL      0.059385
     89 H37         7.8220    3.3010   -3.0850 hc        1 MOL      0.024434
     90 H38         8.9750    2.4910   -1.9770 hc        1 MOL      0.024434
     91 H39        10.4310    2.8850   -4.2870 hn        1 MOL      0.361819
     92 H40        11.1650    4.5010   -4.3120 hn        1 MOL      0.361819
     93 N9          4.7520    3.6820    0.9570 n         1 MOL     -0.451911
     94 C30         3.9330    4.1480    2.0980 c3        1 MOL      0.067655
     95 C31         2.3860    4.1480    1.9010 c         1 MOL      0.590324
     96 O16         1.6950    4.9890    2.4920 o         1 MOL     -0.543835
     97 C32         4.1890    3.2690    3.3940 c3        1 MOL      0.190095
     98 C33         4.4070    1.7760    3.2500 c3        1 MOL     -0.286939
     99 C34         5.3100    4.0010    4.1220 c3        1 MOL     -0.286939
    100 H41         4.7010    2.7150    0.6830 hn        1 MOL      0.189422
    101 H42         4.1190    5.2090    2.2810 h1        1 MOL      0.089890
    102 H43         3.3740    3.4530    4.0980 hc        1 MOL     -0.031390
    103 H44         3.7000    1.3230    2.5640 hc        1 MOL      0.069774
    104 H45         5.4020    1.5660    2.8550 hc        1 MOL      0.069774
    105 H46         4.3150    1.3320    4.2400 hc        1 MOL      0.069774
    106 H47         6.1950    4.0170    3.4740 hc        1 MOL      0.069774
    107 H48         5.0010    5.0160    4.3820 hc        1 MOL      0.069774
    108 H49         5.7310    3.4940    4.9960 hc        1 MOL      0.069774
    109 N10         2.0150    3.2830    0.9210 n         1 MOL     -0.545223
    110 C35         0.7050    2.8610    0.7720 c3        1 MOL      0.059614
    111 C36        -0.1310    3.7080   -0.1510 c         1 MOL      0.744917
    112 O17         0.3270    4.6110   -0.8010 o         1 MOL     -0.565582
    113 C37         0.8730    1.3710    0.2940 c3        1 MOL     -0.190410
    114 C38        -0.3130    0.4610    0.2700 c         1 MOL      0.839845
    115 N11        -0.1860   -0.7560   -0.2610 n         1 MOL     -0.765952
    116 O18        -1.2910    0.7190    0.9050 o         1 MOL     -0.675384
    117 H50         2.7080    2.6870    0.4860 hn        1 MOL      0.318541
    118 H51         0.2500    2.9230    1.7610 h1        1 MOL      0.044718
    119 H52         1.6440    0.8620    0.8820 hc        1 MOL      0.043080
    120 H53         1.1930    1.4440   -0.7420 hc        1 MOL      0.043080
    121 H54         0.5760   -1.0600   -0.8340 hn        1 MOL      0.351511
    122 H55        -1.0030   -1.3240   -0.0500 hn        1 MOL      0.351511
    123 N12        -1.3800    3.3480   -0.3020 n         1 MOL     -0.657729
    124 C39        -2.3890    4.0660   -1.0440 c3        1 MOL      0.168453
    125 C40        -3.7890    3.8440   -0.4450 c         1 MOL      0.527445
    126 O19        -4.1470    2.7500   -0.0420 o         1 MOL     -0.518726
    127 C41        -2.3560    3.6900   -2.5320 c3        1 MOL     -0.294775
    128 C42        -2.6050    2.2450   -2.9180 ca        1 MOL      0.184446
    129 C43        -1.5020    1.3820   -3.0270 ca        1 MOL     -0.265370
    130 C44        -3.9010    1.6750   -3.1470 ca        1 MOL     -0.265370
    131 C45        -1.6280    0.0300   -3.3180 ca        1 MOL     -0.172961
    132 C46        -4.0600    0.3110   -3.3530 ca        1 MOL     -0.172961
    133 C47        -2.9420   -0.5420   -3.4790 ca        1 MOL      0.250363
    134 O20        -2.9470   -1.8720   -3.7500 oh        1 MOL     -0.461190
    135 H56        -1.5930    2.4450    0.0960 hn        1 MOL      0.331979
    136 H57        -2.1590    5.1180   -0.8520 h1        1 MOL      0.066589
    137 H58        -1.4070    3.9650   -2.9910 hc        1 MOL      0.099700
    138 H59        -3.0000    4.3230   -3.1370 hc        1 MOL      0.099700
    139 H60        -0.5160    1.8130   -3.0010 ha        1 MOL      0.172417
    140 H61        -4.7290    2.3620   -3.0210 ha        1 MOL      0.172417
    141 H62        -0.7500   -0.5900   -3.4270 ha        1 MOL      0.115663
    142 H63        -5.0820    0.0700   -3.6190 ha        1 MOL      0.115663
    143 H64        -2.0300   -2.1070   -3.9180 ho        1 MOL      0.360081
    144 N13        -4.6650    4.7700   -0.4070 n         1 MOL     -0.492499
    145 C48        -6.0410    4.6750    0.0960 c3        1 MOL      0.287594
    146 C49        -6.9730    4.1080   -1.0640 c         1 MOL      0.427498
    147 O21        -7.0860    4.7010   -2.1360 o         1 MOL     -0.557340
    148 C50        -6.5780    6.0160    0.5130 c3        1 MOL     -0.031644
    149 C51        -5.8520    6.4450    1.7250 c3        1 MOL     -0.302004
    150 C52        -6.2300    7.8780    2.0220 c         1 MOL      0.756168
    151 O22        -5.6530    8.8600    1.5100 o         1 MOL     -0.708271
    152 O23        -7.0690    8.1340    2.9430 o         1 MOL     -0.708271
    153 H65        -4.3470    5.6120   -0.8730 hn        1 MOL      0.270779
    154 H66        -6.0670    3.9140    0.8780 h1        1 MOL      0.020397
    155 H67        -7.6560    5.9890    0.6670 hc        1 MOL      0.038698
    156 H68        -6.3960    6.7650   -0.2520 hc        1 MOL      0.038698
    157 H69        -4.7800    6.3960    1.5630 hc        1 MOL      0.060921
    158 H70        -6.1060    5.7970    2.5590 hc        1 MOL      0.060921
    159 N14        -7.6810    3.0060   -0.8200 n         1 MOL     -0.474624
    160 C53        -7.6330    2.0580    0.3250 c3        1 MOL      0.054722
    161 C54        -8.2010    2.5430    1.6850 c         1 MOL      0.499147
    162 O24        -8.5160    3.7060    1.8220 o         1 MOL     -0.457119
    163 C55        -8.2810    0.6370   -0.0470 c3        1 MOL      0.190158
    164 C56        -8.0240    0.0670   -1.4390 c3        1 MOL     -0.207348
    165 C57        -8.4390   -1.3740   -1.6790 c         1 MOL      0.738598
    166 O25        -8.0020   -2.3080   -1.0010 o         1 MOL     -0.710107
    167 O26        -9.2700   -1.5920   -2.5380 o         1 MOL     -0.710107
    168 H71        -8.2690    2.7240   -1.5910 hn        1 MOL      0.305600
    169 H72        -6.5630    1.8930    0.4620 h1        1 MOL      0.062058
    170 H73        -9.3670    0.7280    0.0130 hc        1 MOL     -0.093868
    171 H74        -7.8800   -0.1060    0.6510 hc        1 MOL     -0.093868
    172 H75        -6.9780    0.2020   -1.7300 hc        1 MOL      0.052052
    173 H76        -8.5070    0.7340   -2.1530 hc        1 MOL      0.052052
    174 N15        -8.3540    1.6390    2.6820 n         1 MOL     -0.441711
    175 C58        -8.7310    1.9670    4.0570 c3        1 MOL     -0.251968
    176 H77        -8.1720    2.8430    4.3870 h1        1 MOL      0.120076
    177 H78        -9.7990    2.1800    4.1000 h1        1 MOL      0.120076
    178 H79        -8.5010    1.1240    4.7080 h1        1 MOL      0.120076
    179 H80        -7.9830    0.7080    2.5600 hn        1 MOL      0.330415
    180 Ca1        -6.4110   -4.1910   -0.9660 Ca        1 MOL      1.746208
    181 O27        -9.0670   -5.0060   -0.0380 oh        1 MOL     -0.864160
    182 O28        -4.8830   -2.1780   -0.3110 oh        1 MOL     -0.864160
    183 H81        -9.8360   -4.9540   -0.6090 ho        1 MOL      0.402314
    184 H82        -3.9830   -2.0440    0.0040 ho        1 MOL      0.402314
    185 H83        -9.2080   -5.8010    0.4810 ho        1 MOL      0.402314
    186 H84        -5.3450   -1.3970   -0.0210 ho        1 MOL      0.402314
    187 O29        -5.6960   -2.9940   -3.2520 oh        1 MOL     -0.864160
    188 H85        -6.2640   -2.5770   -3.9010 ho        1 MOL      0.402314
    189 H86        -4.8410   -3.0400   -3.6780 ho        1 MOL      0.402314
    190 O30        -7.7460   -5.5730   -2.8550 oh        1 MOL     -0.864160
    191 O31        -6.7360   -6.7900   -0.2170 oh        1 MOL     -0.864160
    192 H87        -8.5780   -5.1200   -2.7840 ho        1 MOL      0.402314
    193 H88        -7.4760   -7.2810    0.1530 ho        1 MOL      0.402314
    194 H89        -7.8910   -6.2290   -3.5380 ho        1 MOL      0.402314
    195 H90        -6.2010   -7.4470   -0.6600 ho        1 MOL      0.402314
@<TRIPOS>BOND
     1    1    2 1   
     2    1    4 1   
     3    1    5 1   
     4    1    6 1   
     5    2    3 2   
     6    2    7 1   
     7    7    8 1   
     8    7   15 1   
     9    8    9 1   
    10    8   11 1   
    11    8   16 1   
    12    9   10 2   
    13    9   19 1   
    14   11   12 1   
    15   11   17 1   
    16   11   18 1   
    17   12   13 1   
    18   12   14 1   
    19   19   20 1   
    20   19   27 1   
    21   20   21 1   
    22   20   23 1   
    23   20   28 1   
    24   21   22 2   
    25   21   38 1   
    26   23   24 1   
    27   23   25 1   
    28   23   29 1   
    29   24   26 1   
    30   24   30 1   
    31   24   31 1   
    32   25   32 1   
    33   25   33 1   
    34   25   34 1   
    35   26   35 1   
    36   26   36 1   
    37   26   37 1   
    38   38   39 1   
    39   38   46 1   
    40   39   40 1   
    41   39   42 1   
    42   39   47 1   
    43   40   41 2   
    44   40   50 1   
    45   42   43 1   
    46   42   48 1   
    47   42   49 1   
    48   43   44 1   
    49   43   45 1   
    50   50   51 1   
    51   50   54 1   
    52   51   52 1   
    53   51   55 1   
    54   51   56 1   
    55   52   53 2   
    56   52   57 1   
    57   57   58 1   
    58   57   65 1   
    59   58   59 1   
    60   58   61 1   
    61   58   66 1   
    62   59   60 2   
    63   59   69 1   
    64   61   62 1   
    65   61   67 1   
    66   61   68 1   
    67   62   63 1   
    68   62   64 1   
    69   69   70 1   
    70   69   73 1   
    71   70   71 1   
    72   70   74 1   
    73   70   75 1   
    74   71   72 2   
    75   71   76 1   
    76   76   77 1   
    77   76   85 1   
    78   77   78 1   
    79   77   80 1   
    80   77   86 1   
    81   78   79 2   
    82   78   93 1   
    83   80   81 1   
    84   80   87 1   
    85   80   88 1   
    86   81   82 1   
    87   81   89 1   
    88   81   90 1   
    89   82   83 1   
    90   82   84 2   
    91   83   91 1   
    92   83   92 1   
    93   93   94 1   
    94   93  100 1   
    95   94   95 1   
    96   94   97 1   
    97   94  101 1   
    98   95   96 2   
    99   95  109 1   
   100   97   98 1   
   101   97   99 1   
   102   97  102 1   
   103   98  103 1   
   104   98  104 1   
   105   98  105 1   
   106   99  106 1   
   107   99  107 1   
   108   99  108 1   
   109  109  110 1   
   110  109  117 1   
   111  110  111 1   
   112  110  113 1   
   113  110  118 1   
   114  111  112 2   
   115  111  123 1   
   116  113  114 1   
   117  113  119 1   
   118  113  120 1   
   119  114  115 1   
   120  114  116 2   
   121  115  121 1   
   122  115  122 1   
   123  123  124 1   
   124  123  135 1   
   125  124  125 1   
   126  124  127 1   
   127  124  136 1   
   128  125  126 2   
   129  125  144 1   
   130  127  128 1   
   131  127  137 1   
   132  127  138 1   
   133  128  129 ar  
   134  128  130 ar  
   135  129  131 ar  
   136  129  139 1   
   137  130  132 ar  
   138  130  140 1   
   139  131  133 ar  
   140  131  141 1   
   141  132  133 ar  
   142  132  142 1   
   143  133  134 1   
   144  134  143 1   
   145  144  145 1   
   146  144  153 1   
   147  145  146 1   
   148  145  148 1   
   149  145  154 1   
   150  146  147 2   
   151  146  159 1   
   152  148  149 1   
   153  148  155 1   
   154  148  156 1   
   155  149  150 1   
   156  149  157 1   
   157  149  158 1   
   158  150  151 1   
   159  150  152 1   
   160  159  160 1   
   161  159  168 1   
   162  160  161 1   
   163  160  163 1   
   164  160  169 1   
   165  161  162 2   
   166  161  174 1   
   167  163  164 1   
   168  163  170 1   
   169  163  171 1   
   170  164  165 1   
   171  164  172 1   
   172  164  173 1   
   173  165  166 1   
   174  165  167 1   
   175  174  175 1   
   176  174  179 1   
   177  175  176 1   
   178  175  177 1   
   179  175  178 1   
   180  181  183 1   
   181  181  185 1   
   182  182  184 1   
   183  182  186 1   
   184  187  188 1   
   185  187  189 1   
   186  190  192 1   
   187  190  194 1   
   188  191  193 1   
   189  191  195 1   
@<TRIPOS>SUBSTRUCTURE
     1 MOL         1 TEMP              0 ****  ****    0 ROOT
