@<TRIPOS>MOLECULE
MOL
  192   187     1     0     0
SMALL
resp


@<TRIPOS>ATOM
      1 C1         10.6260   -5.9820    3.3460 c3        1 MOL     -0.470160
      2 C2         10.6450   -4.6340    2.5940 c         1 MOL      0.735356
      3 O1         11.1010   -3.6570    3.1490 o         1 MOL     -0.594430
      4 H1         10.1290   -6.7320    2.7310 hc        1 MOL      0.123026
      5 H2         11.6480   -6.2990    3.5500 hc        1 MOL      0.123026
      6 H3         10.0860   -5.8660    4.2850 hc        1 MOL      0.123026
      7 N1         10.2310   -4.6190    1.3030 n         1 MOL     -0.327426
      8 C3         10.3510   -3.4160    0.4990 c3        1 MOL     -0.093142
      9 C4          9.1310   -2.4400    0.6920 c         1 MOL      0.386002
     10 O2          7.9830   -2.8470    0.7640 o         1 MOL     -0.672902
     11 C5         10.6890   -3.7130   -1.0250 c3        1 MOL     -0.161261
     12 C6         10.1830   -5.1400   -1.3790 c         1 MOL      0.737472
     13 O3          8.9990   -5.3800   -1.1570 o         1 MOL     -0.703441
     14 O4         10.9690   -6.0200   -1.8240 o         1 MOL     -0.703441
     15 H4          9.9120   -5.4670    0.8580 hn        1 MOL      0.171526
     16 H5         11.2120   -2.8880    0.8990 h1        1 MOL      0.085378
     17 H6         11.7850   -3.7600   -0.9780 hc        1 MOL      0.065616
     18 H7         10.3270   -2.9520   -1.7200 hc        1 MOL      0.065616
     19 N2          9.3630   -1.1520    0.7190 n         1 MOL     -0.218238
     20 C7          8.4500    0.0100    0.8410 c3        1 MOL      0.206545
     21 C8          7.8520    0.4690   -0.4690 c         1 MOL      0.433102
     22 O5          8.3000    1.4750   -1.0970 o         1 MOL     -0.537345
     23 C9          9.0680    1.1540    1.6670 c3        1 MOL     -0.318860
     24 C10         8.0280    2.1450    2.1460 c3        1 MOL     -0.139219
     25 C11         8.7370    3.4540    2.6430 c3        1 MOL      0.417757
     26 C12         7.7910    4.3510    3.4740 c3        1 MOL     -0.078574
     27 N3          8.4540    5.5820    4.0190 n4        1 MOL     -0.235331
     28 H8         10.3120   -0.8800    0.4990 hn        1 MOL      0.234403
     29 H9          7.5810   -0.2690    1.4370 h1        1 MOL      0.105698
     30 H10         9.9210    1.6330    1.1850 hc        1 MOL      0.085015
     31 H11         9.4310    0.5940    2.5310 hc        1 MOL      0.085015
     32 H12         7.3610    1.7120    2.8830 hc        1 MOL      0.046273
     33 H13         7.4330    2.4870    1.3030 hc        1 MOL      0.046273
     34 H14         9.3080    3.9690    1.8750 hc        1 MOL     -0.066153
     35 H15         9.4990    3.1790    3.3720 hc        1 MOL     -0.066153
     36 H16         7.4810    3.7220    4.3050 hx        1 MOL      0.078702
     37 H17         6.9690    4.5950    2.7940 hx        1 MOL      0.078702
     38 H18         7.8430    6.1040    4.6250 hn        1 MOL      0.259620
     39 H19         9.2850    5.4010    4.5750 hn        1 MOL      0.259620
     40 H20         8.7040    6.2440    3.3070 hn        1 MOL      0.259620
     41 N4          6.7550   -0.1340   -0.8380 n         1 MOL     -0.335035
     42 C13         5.8740    0.0990   -2.0230 c3        1 MOL      0.307591
     43 C14         4.4260    0.1020   -1.4810 c         1 MOL      0.374270
     44 O6          4.1680   -0.5720   -0.4950 o         1 MOL     -0.508881
     45 C15         6.0370   -0.8860   -3.1550 c3        1 MOL     -0.189444
     46 C16         6.1840   -2.2640   -2.6650 c         1 MOL      0.527523
     47 O7          5.2350   -3.0460   -2.6460 o         1 MOL     -0.610157
     48 O8          7.2790   -2.6640   -2.1780 o         1 MOL     -0.610157
     49 H21         6.3760   -0.7280   -0.1160 hn        1 MOL      0.115272
     50 H22         6.1960    1.0740   -2.3780 h1        1 MOL      0.029338
     51 H23         6.9850   -0.5670   -3.5830 hc        1 MOL      0.061537
     52 H24         5.1630   -0.8120   -3.8030 hc        1 MOL      0.061537
     53 N5          3.4420    0.7950   -2.0560 n         1 MOL     -0.388165
     54 C17         3.6650    1.9530   -2.9840 c3        1 MOL      0.028335
     55 C18         3.7080    3.2880   -2.4230 c         1 MOL      0.730583
     56 O9          4.1680    3.4290   -1.3340 o         1 MOL     -0.566517
     57 H25         2.4910    0.6380   -1.7480 hn        1 MOL      0.339243
     58 H26         2.8710    1.9120   -3.7310 h1        1 MOL      0.032684
     59 H27         4.5410    1.8170   -3.6110 h1        1 MOL      0.032684
     60 N6          3.2390    4.3400   -3.0910 n         1 MOL     -0.691079
     61 C19         3.0740    5.6380   -2.4090 c3        1 MOL      0.334583
     62 C20         1.6760    5.6300   -1.6950 c         1 MOL      0.416181
     63 O10         0.6700    5.1490   -2.1640 o         1 MOL     -0.490661
     64 C21         3.1180    6.8360   -3.3190 c3        1 MOL     -0.329858
     65 C22         2.8550    8.1990   -2.6700 c         1 MOL      0.746015
     66 O11         3.5100    8.3980   -1.6750 o         1 MOL     -0.683627
     67 O12         2.2150    9.1520   -3.1920 o         1 MOL     -0.683627
     68 H28         2.8750    4.2410   -4.0290 hn        1 MOL      0.332859
     69 H29         3.8990    5.8050   -1.7100 h1        1 MOL      0.014503
     70 H30         2.3740    6.7200   -4.0960 hc        1 MOL      0.067385
     71 H31         4.1330    6.9200   -3.7340 hc        1 MOL      0.067385
     72 N7          1.6150    6.0960   -0.4390 n         1 MOL     -0.350104
     73 C23         0.5450    5.8950    0.5450 c3        1 MOL      0.006588
     74 C24         0.4420    4.4600    0.9400 c         1 MOL      0.420854
     75 O13        -0.6470    4.0520    1.3190 o         1 MOL     -0.540229
     76 H32         2.4760    6.5480   -0.1620 hn        1 MOL      0.203076
     77 H33        -0.3860    6.0670    0.0000 h1        1 MOL      0.093165
     78 H34         0.4520    6.5530    1.4060 h1        1 MOL      0.093165
     79 N8          1.4650    3.5950    0.7520 n         1 MOL     -0.241376
     80 C25         1.4350    2.2450    1.3390 c3        1 MOL     -0.065234
     81 C26         0.6460    1.2170    0.5300 c         1 MOL      0.515719
     82 O14         0.7440    1.2690   -0.6970 o         1 MOL     -0.529750
     83 C27         2.9400    1.8340    1.5170 c3        1 MOL      0.381209
     84 C28         3.9130    2.8930    2.0230 c3        1 MOL     -0.173653
     85 O15         2.9340    0.9360    2.6210 oh        1 MOL     -0.673097
     86 H35         2.2930    3.9730    0.3130 hn        1 MOL      0.167971
     87 H36         0.9690    2.2290    2.3190 h1        1 MOL      0.106891
     88 H37         3.3650    1.2700    0.6790 h1        1 MOL     -0.026487
     89 H38         3.6280    0.2700    2.5570 ho        1 MOL      0.389869
     90 H39         3.4970    3.6770    2.6540 hc        1 MOL      0.032823
     91 H40         4.7570    2.4520    2.5620 hc        1 MOL      0.032823
     92 H41         4.3270    3.4220    1.1730 hc        1 MOL      0.032823
     93 N9         -0.0770    0.3800    1.2720 n         1 MOL     -0.325887
     94 C29        -0.8370   -0.6460    0.6100 c3        1 MOL     -0.456446
     95 C30        -2.3280   -0.1950    0.3800 c         1 MOL      0.710123
     96 O16        -3.0220   -0.9570   -0.2670 o         1 MOL     -0.588562
     97 C31        -0.6630   -2.0070    1.3710 c3        1 MOL      0.404327
     98 C32        -1.3760   -1.8950    2.7820 c3        1 MOL      0.070202
     99 C33         0.7830   -2.5140    1.5270 c3        1 MOL     -0.178546
    100 C34        -1.7400   -3.2390    3.5140 c3        1 MOL     -0.229351
    101 H42        -0.1060    0.4430    2.2780 hn        1 MOL      0.257407
    102 H43        -0.3970   -0.8200   -0.3690 h1        1 MOL      0.183851
    103 H44        -1.2540   -2.7700    0.8730 hc        1 MOL     -0.035454
    104 H45        -2.3020   -1.3320    2.6640 hc        1 MOL     -0.015245
    105 H46        -0.6900   -1.3400    3.4110 hc        1 MOL     -0.015245
    106 H47         0.7890   -3.5570    1.8480 hc        1 MOL      0.026610
    107 H48         1.3050   -2.3400    0.5810 hc        1 MOL      0.026610
    108 H49         1.3080   -1.9770    2.3120 hc        1 MOL      0.026610
    109 H50        -0.8030   -3.7680    3.3680 hc        1 MOL      0.053007
    110 H51        -1.9110   -3.0650    4.5810 hc        1 MOL      0.053007
    111 H52        -2.5410   -3.7530    2.9910 hc        1 MOL      0.053007
    112 N10        -2.6980    0.9880    0.7470 n         1 MOL     -0.400291
    113 C35        -3.9560    1.7010    0.2660 c3        1 MOL     -0.041822
    114 C36        -4.9610    2.0900    1.3710 c         1 MOL      0.682365
    115 O17        -4.5320    2.4560    2.4190 o         1 MOL     -0.525617
    116 C37        -3.5670    2.9290   -0.4760 c3        1 MOL      0.476712
    117 C38        -2.4100    2.8110   -1.5000 c3        1 MOL     -0.317217
    118 O18        -4.6970    3.4420   -1.1890 oh        1 MOL     -0.703596
    119 H53        -2.1100    1.5440    1.3450 hn        1 MOL      0.233864
    120 H54        -4.5080    1.0710   -0.4300 h1        1 MOL      0.082721
    121 H55        -3.2380    3.6620    0.2620 h1        1 MOL     -0.050726
    122 H56        -4.3430    4.2580   -1.5780 ho        1 MOL      0.409864
    123 H57        -2.3460    3.8250   -1.9090 hc        1 MOL      0.086294
    124 H58        -1.4810    2.5660   -0.9830 hc        1 MOL      0.086294
    125 H59        -2.4920    2.0790   -2.3010 hc        1 MOL      0.086294
    126 N11        -6.2580    1.7930    1.1080 n         1 MOL     -0.761532
    127 C39        -7.3970    2.1470    2.0100 c3        1 MOL      0.213911
    128 C40        -8.5050    1.0780    2.2000 c         1 MOL      0.623440
    129 O19        -8.8360    0.8800    3.3440 o         1 MOL     -0.580728
    130 C41        -7.9890    3.5190    1.5840 c3        1 MOL      0.356549
    131 C42        -9.1140    4.0690    2.4970 c3        1 MOL     -0.403338
    132 O20        -8.5930    3.4300    0.3030 oh        1 MOL     -0.676424
    133 H60        -6.4280    1.4830    0.1660 hn        1 MOL      0.363413
    134 H61        -6.9860    2.4690    2.9690 h1        1 MOL      0.043087
    135 H62        -7.1640    4.2300    1.5730 h1        1 MOL      0.009937
    136 H63        -8.2850    4.1050   -0.3130 ho        1 MOL      0.417401
    137 H64        -9.5450    4.9860    2.0900 hc        1 MOL      0.104213
    138 H65        -9.9450    3.3690    2.3830 hc        1 MOL      0.104213
    139 H66        -8.8500    4.1980    3.5430 hc        1 MOL      0.104213
    140 N12        -9.0470    0.5210    1.1320 n         1 MOL     -0.469124
    141 C43       -10.1010   -0.4760    1.2020 c3        1 MOL      0.050340
    142 C44       -10.0820   -1.4880    0.1050 c         1 MOL      0.590532
    143 O21        -9.4760   -1.1140   -0.9140 o         1 MOL     -0.513231
    144 C45       -11.5520    0.1600    1.2230 c3        1 MOL     -0.302904
    145 C46       -11.9760    0.7850   -0.1540 c3        1 MOL      0.201301
    146 C47       -13.4810    0.7750   -0.2850 c3        1 MOL     -0.101821
    147 C48       -14.0470    1.4010   -1.5950 c3        1 MOL     -0.014677
    148 N13       -14.1020    2.8790   -1.5000 n4        1 MOL     -0.349883
    149 H67        -8.7470    0.9000    0.2490 hn        1 MOL      0.261021
    150 H68        -9.9480   -0.9890    2.1490 h1        1 MOL      0.097921
    151 H69       -11.6930    1.0170    1.8840 hc        1 MOL      0.087673
    152 H70       -12.3450   -0.5720    1.3940 hc        1 MOL      0.087673
    153 H71       -11.4350    0.3200   -0.9780 hc        1 MOL     -0.019926
    154 H72       -11.7160    1.8430   -0.0950 hc        1 MOL     -0.019926
    155 H73       -13.9420    1.3360    0.5290 hc        1 MOL      0.052271
    156 H74       -13.8300   -0.2530   -0.3720 hc        1 MOL      0.052271
    157 H75       -15.0360    0.9780   -1.7550 hx        1 MOL      0.106458
    158 H76       -13.3490    1.1360   -2.3930 hx        1 MOL      0.106458
    159 H77       -14.2100    3.0810   -0.5170 hn        1 MOL      0.290482
    160 H78       -13.2680    3.3350   -1.8430 hn        1 MOL      0.290482
    161 H79       -14.8890    3.2520   -2.0150 hn        1 MOL      0.290482
    162 N14       -10.5820   -2.6520    0.3130 n         1 MOL     -0.446597
    163 C49       -10.7600   -3.6590   -0.7520 c3        1 MOL      0.184756
    164 C50        -9.5150   -4.0750   -1.5880 c         1 MOL      0.186113
    165 O22        -9.6630   -4.1040   -2.8970 o         1 MOL     -0.486965
    166 C51       -11.3430   -4.9180   -0.0890 c3        1 MOL     -0.089383
    167 C52       -11.9650   -5.7600   -1.1190 c3        1 MOL     -0.120858
    168 C53       -13.0020   -6.7280   -0.5890 c         1 MOL      0.698824
    169 O23       -12.6520   -7.7520    0.0010 o         1 MOL     -0.663618
    170 O24       -14.1970   -6.4240   -0.8090 o         1 MOL     -0.663618
    171 H80       -11.0910   -2.7660    1.1720 hn        1 MOL      0.259007
    172 H81       -11.4660   -3.2310   -1.4690 h1        1 MOL      0.072735
    173 H82       -12.1830   -4.5970    0.5260 hc        1 MOL      0.038598
    174 H83       -10.6380   -5.4230    0.5780 hc        1 MOL      0.038598
    175 H84       -11.1720   -6.2400   -1.6840 hc        1 MOL      0.026361
    176 H85       -12.5120   -5.1140   -1.8090 hc        1 MOL      0.026361
    177 N15        -8.3590   -4.5080   -1.0150 n         1 MOL     -0.167199
    178 C54        -7.8990   -4.5610    0.3580 c3        1 MOL     -0.104194
    179 H86        -8.3740   -3.7650    0.9300 h1        1 MOL      0.069563
    180 H87        -8.1590   -5.5260    0.7920 h1        1 MOL      0.069563
    181 H88        -6.8160   -4.4300    0.3840 h1        1 MOL      0.069563
    182 H89        -7.5950   -4.7030   -1.6460 hn        1 MOL      0.262662
    183 Ca1         6.4750   -4.7090   -0.7260 Ca        1 MOL      1.699694
    184 O25         4.0500   -5.8910   -1.2270 oh        1 MOL     -0.827734
    185 H90         3.1330   -5.9190   -0.9590 ho        1 MOL      0.411698
    186 H91         4.3920   -6.7490   -0.9980 ho        1 MOL      0.411698
    187 O26         6.9650   -5.5170   -3.2180 oh        1 MOL     -0.827734
    188 H92         6.7460   -6.2150   -3.8300 ho        1 MOL      0.411698
    189 H93         7.7770   -5.1370   -3.5570 ho        1 MOL      0.411698
    190 O27         4.5960   -3.0650    0.4810 oh        1 MOL     -0.827734
    191 H94         4.9440   -2.6070    1.2460 ho        1 MOL      0.411698
    192 H95         4.2430   -2.3750   -0.0780 ho        1 MOL      0.411698
@<TRIPOS>BOND
     1    1    2 1   
     2    1    4 1   
     3    1    5 1   
     4    1    6 1   
     5    2    3 2   
     6    2    7 1   
     7    7    8 1   
     8    7   15 1   
     9    8    9 1   
    10    8   11 1   
    11    8   16 1   
    12    9   10 2   
    13    9   19 1   
    14   11   12 1   
    15   11   17 1   
    16   11   18 1   
    17   12   13 1   
    18   12   14 1   
    19   19   20 1   
    20   19   28 1   
    21   20   21 1   
    22   20   23 1   
    23   20   29 1   
    24   21   22 2   
    25   21   41 1   
    26   23   24 1   
    27   23   30 1   
    28   23   31 1   
    29   24   25 1   
    30   24   32 1   
    31   24   33 1   
    32   25   26 1   
    33   25   34 1   
    34   25   35 1   
    35   26   27 1   
    36   26   36 1   
    37   26   37 1   
    38   27   38 1   
    39   27   39 1   
    40   27   40 1   
    41   41   42 1   
    42   41   49 1   
    43   42   43 1   
    44   42   45 1   
    45   42   50 1   
    46   43   44 2   
    47   43   53 1   
    48   45   46 1   
    49   45   51 1   
    50   45   52 1   
    51   46   47 1   
    52   46   48 1   
    53   53   54 1   
    54   53   57 1   
    55   54   55 1   
    56   54   58 1   
    57   54   59 1   
    58   55   56 2   
    59   55   60 1   
    60   60   61 1   
    61   60   68 1   
    62   61   62 1   
    63   61   64 1   
    64   61   69 1   
    65   62   63 2   
    66   62   72 1   
    67   64   65 1   
    68   64   70 1   
    69   64   71 1   
    70   65   66 1   
    71   65   67 1   
    72   72   73 1   
    73   72   76 1   
    74   73   74 1   
    75   73   77 1   
    76   73   78 1   
    77   74   75 2   
    78   74   79 1   
    79   79   80 1   
    80   79   86 1   
    81   80   81 1   
    82   80   83 1   
    83   80   87 1   
    84   81   82 2   
    85   81   93 1   
    86   83   84 1   
    87   83   85 1   
    88   83   88 1   
    89   84   90 1   
    90   84   91 1   
    91   84   92 1   
    92   85   89 1   
    93   93   94 1   
    94   93  101 1   
    95   94   95 1   
    96   94   97 1   
    97   94  102 1   
    98   95   96 2   
    99   95  112 1   
   100   97   98 1   
   101   97   99 1   
   102   97  103 1   
   103   98  100 1   
   104   98  104 1   
   105   98  105 1   
   106   99  106 1   
   107   99  107 1   
   108   99  108 1   
   109  100  109 1   
   110  100  110 1   
   111  100  111 1   
   112  112  113 1   
   113  112  119 1   
   114  113  114 1   
   115  113  116 1   
   116  113  120 1   
   117  114  115 2   
   118  114  126 1   
   119  116  117 1   
   120  116  118 1   
   121  116  121 1   
   122  117  123 1   
   123  117  124 1   
   124  117  125 1   
   125  118  122 1   
   126  126  127 1   
   127  126  133 1   
   128  127  128 1   
   129  127  130 1   
   130  127  134 1   
   131  128  129 2   
   132  128  140 1   
   133  130  131 1   
   134  130  132 1   
   135  130  135 1   
   136  131  137 1   
   137  131  138 1   
   138  131  139 1   
   139  132  136 1   
   140  140  141 1   
   141  140  149 1   
   142  141  142 1   
   143  141  144 1   
   144  141  150 1   
   145  142  143 2   
   146  142  162 1   
   147  144  145 1   
   148  144  151 1   
   149  144  152 1   
   150  145  146 1   
   151  145  153 1   
   152  145  154 1   
   153  146  147 1   
   154  146  155 1   
   155  146  156 1   
   156  147  148 1   
   157  147  157 1   
   158  147  158 1   
   159  148  159 1   
   160  148  160 1   
   161  148  161 1   
   162  162  163 1   
   163  162  171 1   
   164  163  164 1   
   165  163  166 1   
   166  163  172 1   
   167  164  165 2   
   168  164  177 1   
   169  166  167 1   
   170  166  173 1   
   171  166  174 1   
   172  167  168 1   
   173  167  175 1   
   174  167  176 1   
   175  168  169 1   
   176  168  170 1   
   177  177  178 1   
   178  177  182 1   
   179  178  179 1   
   180  178  180 1   
   181  178  181 1   
   182  184  185 1   
   183  184  186 1   
   184  187  188 1   
   185  187  189 1   
   186  190  191 1   
   187  190  192 1   
@<TRIPOS>SUBSTRUCTURE
     1 MOL         1 TEMP              0 ****  ****    0 ROOT
