@<TRIPOS>MOLECULE
MOL
  189   185     1     0     0
SMALL
resp


@<TRIPOS>ATOM
      1 C1          6.7700   -4.3210   -2.4830 c3        1 MOL     -0.028598
      2 C2          5.3680   -3.8730   -2.0170 c         1 MOL      0.662168
      3 O1          4.7390   -3.2230   -2.8000 o         1 MOL     -0.515473
      4 H1          7.4350   -4.3880   -1.6220 hc        1 MOL     -0.021793
      5 H2          6.6980   -5.2970   -2.9640 hc        1 MOL     -0.021793
      6 H3          7.1670   -3.5950   -3.1930 hc        1 MOL     -0.021793
      7 N1          4.8960   -4.2580   -0.8250 n         1 MOL     -0.666078
      8 C3          3.6680   -3.6770   -0.2140 c3        1 MOL      0.091572
      9 C4          2.2670   -3.8070   -0.8520 c         1 MOL      0.593975
     10 O2          1.3470   -2.9960   -0.5740 o         1 MOL     -0.526852
     11 C5          3.9390   -2.2160    0.3170 c3        1 MOL     -0.424163
     12 C6          5.0520   -2.2150    1.3270 c         1 MOL      0.770050
     13 O3          6.0380   -1.5130    1.1320 o         1 MOL     -0.705190
     14 O4          4.9670   -3.0280    2.3020 o         1 MOL     -0.705190
     15 H4          5.4490   -4.8610   -0.2320 hn        1 MOL      0.340240
     16 H5          3.5010   -4.2300    0.7140 h1        1 MOL      0.072167
     17 H6          3.0680   -1.8980    0.8940 hc        1 MOL      0.146985
     18 H7          4.1590   -1.4840   -0.4510 hc        1 MOL      0.146985
     19 N2          2.0920   -4.8230   -1.6950 n         1 MOL     -0.535164
     20 C7          0.8300   -5.0700   -2.4010 c3        1 MOL      0.203740
     21 C8          0.0770   -6.3090   -1.7920 c         1 MOL      0.420212
     22 O5          0.4000   -7.4950   -2.0200 o         1 MOL     -0.600366
     23 C9          0.9400   -5.2430   -3.9340 c3        1 MOL      0.244694
     24 C10         1.6810   -4.0870   -4.7140 c3        1 MOL      0.005883
     25 C11        -0.4650   -5.5110   -4.4850 c3        1 MOL     -0.432503
     26 C12         1.1250   -2.7440   -4.3680 c3        1 MOL     -0.003013
     27 H8          2.8640   -5.4320   -1.9110 hn        1 MOL      0.307700
     28 H9          0.1890   -4.2090   -2.2550 h1        1 MOL      0.009059
     29 H10         1.6090   -6.0980   -4.0510 hc        1 MOL     -0.062243
     30 H11         1.5320   -4.2170   -5.7920 hc        1 MOL     -0.025800
     31 H12         2.7410   -4.1140   -4.4640 hc        1 MOL     -0.025800
     32 H13        -0.3980   -5.6610   -5.5640 hc        1 MOL      0.098961
     33 H14        -0.9140   -6.4080   -4.0470 hc        1 MOL      0.098961
     34 H15        -1.1730   -4.6850   -4.3520 hc        1 MOL      0.098961
     35 H16         1.7050   -1.9500   -4.8490 hc        1 MOL      0.019061
     36 H17         0.1040   -2.7330   -4.7480 hc        1 MOL      0.019061
     37 H18         1.1980   -2.4770   -3.3120 hc        1 MOL      0.019061
     38 N3         -0.9150   -6.1390   -0.9790 n         1 MOL     -0.262213
     39 C13        -1.7060   -4.9520   -0.4840 c3        1 MOL     -0.305596
     40 C14        -2.3310   -5.2610    0.9090 c         1 MOL      0.681365
     41 O6         -2.6920   -6.3690    1.2500 o         1 MOL     -0.532144
     42 C15        -2.8720   -4.5000   -1.3900 c3        1 MOL      0.249251
     43 C16        -3.7020   -3.3780   -0.6890 c         1 MOL      0.504158
     44 O7         -4.7950   -3.5720   -0.0860 o         1 MOL     -0.610733
     45 O8         -3.1160   -2.2670   -0.6580 o         1 MOL     -0.610733
     46 H19        -1.2100   -7.0350   -0.6280 hn        1 MOL      0.247853
     47 H20        -1.0590   -4.0710   -0.4990 h1        1 MOL      0.077159
     48 H21        -3.5650   -5.3280   -1.5340 hc        1 MOL     -0.060946
     49 H22        -2.5780   -4.1990   -2.3980 hc        1 MOL     -0.060946
     50 N4         -2.3200   -4.2060    1.7050 n         1 MOL     -0.424093
     51 C17        -2.7830   -4.0660    3.0980 c3        1 MOL     -0.152550
     52 C18        -4.2270   -3.6510    3.1700 c         1 MOL      0.591594
     53 O9         -5.1110   -4.5150    3.2220 o         1 MOL     -0.560503
     54 H23        -1.8920   -3.3630    1.3430 hn        1 MOL      0.309411
     55 H24        -2.1920   -3.3870    3.7160 h1        1 MOL      0.083007
     56 H25        -2.6880   -5.0830    3.4890 h1        1 MOL      0.083007
     57 N5         -4.5330   -2.3570    3.0770 n         1 MOL     -0.528877
     58 C19        -5.8220   -1.8330    3.5610 c3        1 MOL      0.145063
     59 C20        -7.0530   -1.8080    2.5710 c         1 MOL      0.379122
     60 O10        -8.1780   -1.5530    3.0960 o         1 MOL     -0.599504
     61 C21        -5.4440   -0.4870    4.1870 c3        1 MOL     -0.303269
     62 C22        -4.5930    0.3760    3.2180 c         1 MOL      0.700251
     63 O11        -4.8510    0.3790    2.0030 o         1 MOL     -0.671585
     64 O12        -3.5600    0.8370    3.6120 o         1 MOL     -0.671585
     65 H26        -3.7760   -1.6960    3.0090 hn        1 MOL      0.370155
     66 H27        -6.0560   -2.4670    4.4210 h1        1 MOL      0.046370
     67 H28        -4.7510   -0.7830    4.9760 hc        1 MOL      0.046740
     68 H29        -6.3690   -0.0430    4.5450 hc        1 MOL      0.046740
     69 N6         -6.7580   -1.8930    1.2790 n         1 MOL     -0.049794
     70 C23        -7.7460   -1.6100    0.1370 c3        1 MOL     -0.234803
     71 C24        -8.1650   -0.2120   -0.1900 c         1 MOL      0.547339
     72 O13        -9.0390   -0.0810   -1.0810 o         1 MOL     -0.591275
     73 H30        -5.9140   -2.3750    1.0070 hn        1 MOL      0.206968
     74 H31        -8.6150   -2.2160    0.3710 h1        1 MOL      0.096937
     75 H32        -7.2690   -2.0340   -0.7500 h1        1 MOL      0.096937
     76 N7         -7.6060    0.7320    0.5280 n         1 MOL     -0.116131
     77 C25        -7.6860    2.2060    0.4950 c3        1 MOL      0.007389
     78 C26        -7.4200    2.6750   -0.9650 c         1 MOL      0.509090
     79 O14        -8.0140    3.6280   -1.4650 o         1 MOL     -0.536821
     80 C27        -8.8970    2.8370    1.1710 c3        1 MOL      0.046034
     81 C28        -9.1640    2.1680    2.5150 c3        1 MOL     -0.125941
     82 C29       -10.0450    3.0620    3.3980 c         1 MOL      0.687515
     83 N8        -10.2250    2.7170    4.7240 n         1 MOL     -0.893813
     84 O15       -10.5940    4.0430    2.9090 o         1 MOL     -0.559932
     85 H33        -7.0210    0.3670    1.2680 hn        1 MOL      0.133388
     86 H34        -6.8540    2.5700    1.0920 h1        1 MOL      0.085532
     87 H35        -9.8580    2.8210    0.6550 hc        1 MOL      0.005479
     88 H36        -8.5950    3.8870    1.1960 hc        1 MOL      0.005479
     89 H37        -8.2420    2.0460    3.0980 hc        1 MOL      0.053903
     90 H38        -9.6340    1.2400    2.2210 hc        1 MOL      0.053903
     91 H39        -9.9810    1.7940    5.0510 hn        1 MOL      0.370285
     92 H40       -10.6460    3.3560    5.3900 hn        1 MOL      0.370285
     93 N9         -6.4660    2.0440   -1.6810 n         1 MOL     -0.413307
     94 C30        -6.1150    2.2530   -3.0790 c3        1 MOL     -0.043656
     95 C31        -4.5750    2.3030   -3.3230 c         1 MOL      0.572196
     96 O16        -4.1280    2.6270   -4.4080 o         1 MOL     -0.578874
     97 C32        -6.6460    1.2600   -4.0660 c3        1 MOL      0.211407
     98 C33        -6.2330   -0.1580   -3.6420 c3        1 MOL     -0.228913
     99 C34        -8.2020    1.3760   -4.2330 c3        1 MOL     -0.228913
    100 H41        -5.9730    1.2970   -1.2130 hn        1 MOL      0.202846
    101 H42        -6.4420    3.2400   -3.4010 h1        1 MOL      0.108354
    102 H43        -6.2590    1.4670   -5.0620 hc        1 MOL     -0.028387
    103 H44        -5.2010   -0.3390   -3.3350 hc        1 MOL      0.051724
    104 H45        -6.9140   -0.4510   -2.8360 hc        1 MOL      0.051724
    105 H46        -6.4680   -0.8950   -4.4060 hc        1 MOL      0.051724
    106 H47        -8.5420    0.7380   -5.0490 hc        1 MOL      0.051724
    107 H48        -8.7250    0.9830   -3.3590 hc        1 MOL      0.051724
    108 H49        -8.3820    2.4260   -4.4510 hc        1 MOL      0.051724
    109 N10        -3.7700    1.9770   -2.2940 n         1 MOL     -0.566277
    110 C35        -2.3170    1.8610   -2.4220 c3        1 MOL      0.284705
    111 C36        -1.6090    2.4550   -1.1880 c         1 MOL      0.503710
    112 O17        -2.1910    2.8660   -0.1700 o         1 MOL     -0.524789
    113 C37        -2.0330    0.3090   -2.7070 c3        1 MOL     -0.146116
    114 C38        -0.6990   -0.2410   -2.3390 c         1 MOL      0.488938
    115 N11        -0.6410   -1.3660   -1.6150 n         1 MOL     -0.689000
    116 O18         0.3440    0.2250   -2.8000 o         1 MOL     -0.594393
    117 H50        -4.2290    1.6080   -1.4730 hn        1 MOL      0.289919
    118 H51        -2.0140    2.4760   -3.2650 h1        1 MOL      0.047568
    119 H52        -2.2100    0.0170   -3.7440 hc        1 MOL      0.082495
    120 H53        -2.7650   -0.2590   -2.1330 hc        1 MOL      0.082495
    121 H54        -1.5010   -1.6540   -1.1780 hn        1 MOL      0.333513
    122 H55         0.2480   -1.8200   -1.4560 hn        1 MOL      0.333513
    123 N12        -0.2890    2.3370   -1.1840 n         1 MOL     -0.628545
    124 C39         0.5870    2.7380   -0.1410 c3        1 MOL      0.764132
    125 C40         1.8770    3.4030   -0.6560 c         1 MOL      0.256878
    126 O19         2.3410    3.3140   -1.7890 o         1 MOL     -0.522853
    127 C41         0.9490    1.6090    0.8740 c3        1 MOL     -0.426010
    128 C42         2.0380    1.8900    1.8510 ca        1 MOL      0.250843
    129 C43         1.7750    2.7250    2.9420 ca        1 MOL     -0.304898
    130 C44         3.2720    1.2320    1.7390 ca        1 MOL     -0.304898
    131 C45         2.7830    2.9830    3.8650 ca        1 MOL     -0.125347
    132 C46         4.2550    1.4360    2.7250 ca        1 MOL     -0.125347
    133 C47         4.0490    2.3630    3.7990 ca        1 MOL      0.145913
    134 O20         5.0190    2.5830    4.7230 oh        1 MOL     -0.361664
    135 H56         0.1960    1.9060   -1.9480 hn        1 MOL      0.236715
    136 H57         0.0780    3.5560    0.3700 h1        1 MOL     -0.114855
    137 H58         1.3660    0.8030    0.2720 hc        1 MOL      0.140118
    138 H59         0.0080    1.3660    1.3590 hc        1 MOL      0.140118
    139 H60         0.8400    3.2740    3.0000 ha        1 MOL      0.160646
    140 H61         3.4390    0.5100    0.9540 ha        1 MOL      0.160646
    141 H62         2.5380    3.6960    4.6420 ha        1 MOL      0.114569
    142 H63         5.2510    1.0450    2.5940 ha        1 MOL      0.114569
    143 H64         4.5770    3.1930    5.3190 ho        1 MOL      0.301591
    144 N13         2.4990    4.2570    0.2150 n         1 MOL     -0.208906
    145 C48         3.7450    4.9840   -0.2030 c3        1 MOL      0.060413
    146 C49         4.8890    4.7200    0.7650 c         1 MOL      0.377796
    147 O21         5.0660    5.3200    1.7930 o         1 MOL     -0.563622
    148 C50         3.4410    6.4770   -0.2400 c3        1 MOL      0.107637
    149 C51         2.3830    6.9700   -1.3120 c3        1 MOL     -0.143706
    150 C52         2.3670    8.4890   -1.3890 c         1 MOL      0.656704
    151 O22         2.8220    9.0110   -2.4640 o         1 MOL     -0.647167
    152 O23         2.1070    9.1740   -0.3680 o         1 MOL     -0.647167
    153 H65         2.0710    4.3900    1.1210 hn        1 MOL      0.203322
    154 H66         4.0990    4.7970   -1.2170 h1        1 MOL      0.119954
    155 H67         4.3360    7.0770   -0.3790 hc        1 MOL     -0.009485
    156 H68         3.1040    6.7740    0.7550 hc        1 MOL     -0.009485
    157 H69         1.4260    6.5740   -0.9810 hc        1 MOL      0.000175
    158 H70         2.5460    6.5350   -2.2980 hc        1 MOL      0.000175
    159 N14         5.7530    3.7620    0.5070 n         1 MOL     -0.164337
    160 C53         5.7190    2.8110   -0.6790 c3        1 MOL     -0.448603
    161 C54         5.9900    3.4340   -2.0630 c         1 MOL      0.600443
    162 O24         6.3040    4.6200   -2.1580 o         1 MOL     -0.518740
    163 C55         6.6270    1.5880   -0.2760 c3        1 MOL      0.277363
    164 C56         8.1310    1.8440   -0.3480 c3        1 MOL      0.064018
    165 C57         8.7990    0.6950    0.3170 c         1 MOL      0.583984
    166 O25         8.9380   -0.3820   -0.2640 o         1 MOL     -0.765183
    167 O26         8.9090    0.5640    1.5340 o         1 MOL     -0.765183
    168 H71         6.4350    3.6690    1.2400 hn        1 MOL      0.238363
    169 H72         4.6820    2.4860   -0.8050 h1        1 MOL      0.132324
    170 H73         6.5080    0.7970   -1.0240 hc        1 MOL     -0.014127
    171 H74         6.3700    1.1660    0.6920 hc        1 MOL     -0.014127
    172 H75         8.2830    2.8010    0.1590 hc        1 MOL     -0.032602
    173 H76         8.4570    1.8260   -1.3940 hc        1 MOL     -0.032602
    174 N15         5.8730    2.5960   -3.1530 n         1 MOL     -0.283295
    175 C58         6.3030    3.0670   -4.4890 c3        1 MOL     -0.360618
    176 H77         5.5060    3.6580   -4.9390 h1        1 MOL      0.137285
    177 H78         7.1970    3.6820   -4.3880 h1        1 MOL      0.137285
    178 H79         6.5220    2.2090   -5.1250 h1        1 MOL      0.137285
    179 H80         5.5560    1.6520   -3.0120 hn        1 MOL      0.290187
    180 Ca1         8.5520   -1.9220    2.0020 Ca        1 MOL      1.618423
    181 O27        10.2950   -2.1170    4.2510 oh        1 MOL     -0.807291
    182 H81        10.1110   -2.9830    4.6250 ho        1 MOL      0.367397
    183 H82        11.1510   -1.8850    4.6040 ho        1 MOL      0.367397
    184 O28         7.3090   -0.7930    4.2860 oh        1 MOL     -0.807291
    185 H83         6.3540   -0.7610    4.3080 ho        1 MOL      0.367397
    186 H84         7.5780   -0.6160    5.1940 ho        1 MOL      0.367397
    187 O29         8.2600   -4.1180    3.3740 oh        1 MOL     -0.807291
    188 H85         8.6360   -4.4600    4.1810 ho        1 MOL      0.367397
    189 H86         7.4770   -4.6430    3.2310 ho        1 MOL      0.367397
@<TRIPOS>BOND
     1    1    2 1   
     2    1    4 1   
     3    1    5 1   
     4    1    6 1   
     5    2    3 2   
     6    2    7 1   
     7    7    8 1   
     8    7   15 1   
     9    8    9 1   
    10    8   11 1   
    11    8   16 1   
    12    9   10 2   
    13    9   19 1   
    14   11   12 1   
    15   11   17 1   
    16   11   18 1   
    17   12   13 1   
    18   12   14 1   
    19   19   20 1   
    20   19   27 1   
    21   20   21 1   
    22   20   23 1   
    23   20   28 1   
    24   21   22 2   
    25   21   38 1   
    26   23   24 1   
    27   23   25 1   
    28   23   29 1   
    29   24   26 1   
    30   24   30 1   
    31   24   31 1   
    32   25   32 1   
    33   25   33 1   
    34   25   34 1   
    35   26   35 1   
    36   26   36 1   
    37   26   37 1   
    38   38   39 1   
    39   38   46 1   
    40   39   40 1   
    41   39   42 1   
    42   39   47 1   
    43   40   41 2   
    44   40   50 1   
    45   42   43 1   
    46   42   48 1   
    47   42   49 1   
    48   43   44 1   
    49   43   45 1   
    50   50   51 1   
    51   50   54 1   
    52   51   52 1   
    53   51   55 1   
    54   51   56 1   
    55   52   53 2   
    56   52   57 1   
    57   57   58 1   
    58   57   65 1   
    59   58   59 1   
    60   58   61 1   
    61   58   66 1   
    62   59   60 2   
    63   59   69 1   
    64   61   62 1   
    65   61   67 1   
    66   61   68 1   
    67   62   63 1   
    68   62   64 1   
    69   69   70 1   
    70   69   73 1   
    71   70   71 1   
    72   70   74 1   
    73   70   75 1   
    74   71   72 2   
    75   71   76 1   
    76   76   77 1   
    77   76   85 1   
    78   77   78 1   
    79   77   80 1   
    80   77   86 1   
    81   78   79 2   
    82   78   93 1   
    83   80   81 1   
    84   80   87 1   
    85   80   88 1   
    86   81   82 1   
    87   81   89 1   
    88   81   90 1   
    89   82   83 1   
    90   82   84 2   
    91   83   91 1   
    92   83   92 1   
    93   93   94 1   
    94   93  100 1   
    95   94   95 1   
    96   94   97 1   
    97   94  101 1   
    98   95   96 2   
    99   95  109 1   
   100   97   98 1   
   101   97   99 1   
   102   97  102 1   
   103   98  103 1   
   104   98  104 1   
   105   98  105 1   
   106   99  106 1   
   107   99  107 1   
   108   99  108 1   
   109  109  110 1   
   110  109  117 1   
   111  110  111 1   
   112  110  113 1   
   113  110  118 1   
   114  111  112 2   
   115  111  123 1   
   116  113  114 1   
   117  113  119 1   
   118  113  120 1   
   119  114  115 1   
   120  114  116 2   
   121  115  121 1   
   122  115  122 1   
   123  123  124 1   
   124  123  135 1   
   125  124  125 1   
   126  124  127 1   
   127  124  136 1   
   128  125  126 2   
   129  125  144 1   
   130  127  128 1   
   131  127  137 1   
   132  127  138 1   
   133  128  129 ar  
   134  128  130 ar  
   135  129  131 ar  
   136  129  139 1   
   137  130  132 ar  
   138  130  140 1   
   139  131  133 ar  
   140  131  141 1   
   141  132  133 ar  
   142  132  142 1   
   143  133  134 1   
   144  134  143 1   
   145  144  145 1   
   146  144  153 1   
   147  145  146 1   
   148  145  148 1   
   149  145  154 1   
   150  146  147 2   
   151  146  159 1   
   152  148  149 1   
   153  148  155 1   
   154  148  156 1   
   155  149  150 1   
   156  149  157 1   
   157  149  158 1   
   158  150  151 1   
   159  150  152 1   
   160  159  160 1   
   161  159  168 1   
   162  160  161 1   
   163  160  163 1   
   164  160  169 1   
   165  161  162 2   
   166  161  174 1   
   167  163  164 1   
   168  163  170 1   
   169  163  171 1   
   170  164  165 1   
   171  164  172 1   
   172  164  173 1   
   173  165  166 1   
   174  165  167 1   
   175  174  175 1   
   176  174  179 1   
   177  175  176 1   
   178  175  177 1   
   179  175  178 1   
   180  181  182 1   
   181  181  183 1   
   182  184  185 1   
   183  184  186 1   
   184  187  188 1   
   185  187  189 1   
@<TRIPOS>SUBSTRUCTURE
     1 MOL         1 TEMP              0 ****  ****    0 ROOT
