@<TRIPOS>MOLECULE
MOL
  175   173     1     0     0
SMALL
resp


@<TRIPOS>ATOM
      1 C1         -6.7360    7.5440    1.1930 c3        1 MOL     -0.363295
      2 C2         -7.5930    6.7420    0.1570 c         1 MOL      0.587237
      3 O1         -7.7250    7.1170   -1.0650 o         1 MOL     -0.605037
      4 H1         -7.2070    7.4870    2.1750 hc        1 MOL      0.092186
      5 H2         -5.7350    7.1160    1.2460 hc        1 MOL      0.092186
      6 H3         -6.6700    8.5870    0.8820 hc        1 MOL      0.092186
      7 N1         -8.3450    5.7340    0.6080 n         1 MOL     -0.285240
      8 C3         -9.2240    4.9170   -0.2530 c3        1 MOL      0.256055
      9 C4         -8.5460    3.6450   -0.8300 c         1 MOL      0.531545
     10 O2         -9.0900    2.9330   -1.6340 o         1 MOL     -0.593833
     11 C5        -10.4580    4.4680    0.5790 c3        1 MOL     -0.392927
     12 C6        -11.1930    5.5570    1.2840 c         1 MOL      0.747163
     13 O3        -11.0150    6.7550    1.0130 o         1 MOL     -0.740194
     14 O4        -12.1500    5.2580    2.0690 o         1 MOL     -0.740194
     15 H4         -8.3130    5.5210    1.5910 hn        1 MOL      0.226538
     16 H5         -9.5410    5.4920   -1.1310 h1        1 MOL      0.059796
     17 H6        -10.1260    3.6220    1.1830 hc        1 MOL      0.070778
     18 H7        -11.1590    4.0720   -0.1520 hc        1 MOL      0.070778
     19 N2         -7.2570    3.5080   -0.5950 n         1 MOL     -0.579750
     20 C7         -6.3210    2.5460   -1.1920 c3        1 MOL      0.482966
     21 C8         -5.3820    1.9370   -0.1240 c         1 MOL      0.490413
     22 O5         -4.5650    2.7110    0.5220 o         1 MOL     -0.561775
     23 C9         -5.6390    3.2710   -2.3700 c3        1 MOL     -0.336807
     24 H8         -6.8850    4.1700    0.0670 hn        1 MOL      0.170317
     25 H9         -6.9300    1.7430   -1.6260 h1        1 MOL     -0.004100
     26 H10        -4.9080    3.9880   -2.0000 hc        1 MOL      0.088505
     27 H11        -5.0580    2.6890   -3.0970 hc        1 MOL      0.088505
     28 H12        -6.3590    3.7600   -3.0290 hc        1 MOL      0.088505
     29 N3         -5.2770    0.6830    0.0350 n         1 MOL     -0.512528
     30 C10        -5.7610   -0.3440   -0.8480 c3        1 MOL     -0.026290
     31 C11        -5.7410   -1.6610   -0.0880 c         1 MOL      0.616175
     32 O6         -4.8050   -1.8500    0.6610 o         1 MOL     -0.533740
     33 C12        -4.7780   -0.5230   -2.0950 c3        1 MOL     -0.164652
     34 C13        -3.2940   -0.8540   -1.6890 c         1 MOL      0.750272
     35 O7         -2.6800   -1.8030   -2.1930 o         1 MOL     -0.730418
     36 O8         -2.7590   -0.1870   -0.7870 o         1 MOL     -0.730418
     37 H13        -4.6520    0.2250    0.6920 hn        1 MOL      0.345053
     38 H14        -6.7620   -0.0730   -1.1730 h1        1 MOL      0.059361
     39 H15        -4.7900    0.3830   -2.6960 hc        1 MOL      0.024317
     40 H16        -5.1660   -1.3650   -2.6780 hc        1 MOL      0.024317
     41 N4         -6.7400   -2.4820   -0.3210 n         1 MOL     -0.510547
     42 C14        -6.7360   -3.9000    0.1770 c3        1 MOL      0.102479
     43 C15        -6.5770   -4.7390   -1.1040 c         1 MOL      0.494626
     44 O9         -7.5920   -5.2620   -1.5700 o         1 MOL     -0.556082
     45 H17        -7.4740   -2.2490   -0.9680 hn        1 MOL      0.326081
     46 H18        -7.5200   -4.1920    0.8770 h1        1 MOL      0.042726
     47 H19        -5.8330   -4.0290    0.7810 h1        1 MOL      0.042726
     48 N5         -5.3530   -5.1300   -1.4580 n         1 MOL     -0.458374
     49 C16        -4.0020   -4.7540   -1.0250 c3        1 MOL      0.190144
     50 C17        -3.6420   -5.5920    0.1550 c         1 MOL      0.586621
     51 O10        -3.9450   -6.8060    0.1380 o         1 MOL     -0.582528
     52 C18        -3.1360   -4.8530   -2.3030 c3        1 MOL     -0.255886
     53 C19        -1.6930   -4.5040   -2.0320 c         1 MOL      0.561576
     54 N6         -0.7580   -4.7380   -2.9380 n         1 MOL     -0.593252
     55 O11        -1.3390   -4.0150   -0.9920 o         1 MOL     -0.650716
     56 H20        -5.3820   -5.8580   -2.1540 hn        1 MOL      0.279810
     57 H21        -3.9950   -3.7230   -0.6740 h1        1 MOL      0.074260
     58 H22        -3.4350   -4.1500   -3.0750 hc        1 MOL      0.084279
     59 H23        -3.1480   -5.9000   -2.6240 hc        1 MOL      0.084279
     60 H24        -0.9680   -5.0670   -3.8670 hn        1 MOL      0.308898
     61 H25         0.1160   -4.2520   -2.7790 hn        1 MOL      0.308898
     62 N7         -3.0750   -5.0640    1.2370 n         1 MOL     -0.272384
     63 C20        -2.6290   -5.7750    2.4590 c3        1 MOL     -0.300041
     64 C21        -1.1600   -6.0940    2.4960 c         1 MOL      0.609464
     65 O12        -0.7310   -6.7960    3.4500 o         1 MOL     -0.603266
     66 H26        -2.7800   -4.0990    1.1530 hn        1 MOL      0.205294
     67 H27        -3.1420   -6.7380    2.5220 h1        1 MOL      0.134446
     68 H28        -2.7780   -5.1320    3.3270 h1        1 MOL      0.134446
     69 N8         -0.3370   -5.4140    1.7060 n         1 MOL     -0.234359
     70 C22         1.1580   -5.3340    1.8260 c3        1 MOL     -0.223067
     71 C23         1.6630   -3.8640    1.6620 c         1 MOL      0.439932
     72 O13         1.1040   -3.1140    0.8810 o         1 MOL     -0.494819
     73 C24         1.8010   -6.2140    0.7370 c3        1 MOL      0.397107
     74 C25         1.8090   -7.6880    1.1620 c3        1 MOL     -0.373759
     75 O14         1.0790   -6.1230   -0.4910 oh        1 MOL     -0.677244
     76 H29        -0.7560   -4.7610    1.0590 hn        1 MOL      0.298265
     77 H30         1.4910   -5.7260    2.7840 h1        1 MOL      0.097447
     78 H31         2.8520   -5.9140    0.7110 h1        1 MOL      0.022120
     79 H32         1.5400   -5.5310   -1.0810 ho        1 MOL      0.521036
     80 H33         0.7730   -7.9860    1.3020 hc        1 MOL      0.089646
     81 H34         2.4250   -8.2210    0.4320 hc        1 MOL      0.089646
     82 H35         2.3420   -7.7560    2.1110 hc        1 MOL      0.089646
     83 N9          2.6840   -3.5070    2.4550 n         1 MOL     -0.323950
     84 C26         3.3870   -2.2580    2.1860 c3        1 MOL      0.053623
     85 C27         4.2850   -2.4640    1.0440 c         1 MOL      0.146507
     86 O15         5.3240   -3.2400    1.2050 o         1 MOL     -0.529180
     87 C28         4.0400   -1.7320    3.4820 c3        1 MOL      0.169830
     88 C29         4.6780   -0.3440    3.3220 c3        1 MOL      0.216026
     89 C30         3.0300   -1.7530    4.6170 c3        1 MOL     -0.322566
     90 C31         5.3090    0.3180    4.5660 c3        1 MOL     -0.145651
     91 H36         3.1410   -4.2130    3.0160 hn        1 MOL      0.290356
     92 H37         2.6320   -1.5170    1.9050 h1        1 MOL      0.095868
     93 H38         4.8280   -2.4120    3.8110 hc        1 MOL     -0.024190
     94 H39         3.9400    0.3090    2.8500 hc        1 MOL     -0.058019
     95 H40         5.5300   -0.4170    2.6440 hc        1 MOL     -0.058019
     96 H41         2.6000   -2.7410    4.8140 hc        1 MOL      0.068379
     97 H42         3.4930   -1.4410    5.5480 hc        1 MOL      0.068379
     98 H43         2.2170   -1.0720    4.3500 hc        1 MOL      0.068379
     99 H44         5.7060    1.2580    4.1830 hc        1 MOL      0.024275
    100 H45         4.5660    0.5330    5.3440 hc        1 MOL      0.024275
    101 H46         6.1320   -0.2220    5.0270 hc        1 MOL      0.024275
    102 N10         4.0150   -1.9090   -0.1880 n         1 MOL     -0.029859
    103 C32         4.6500   -2.2400   -1.4100 c3        1 MOL      0.322112
    104 C33         5.6810   -1.1730   -1.7210 c         1 MOL      0.356756
    105 O16         6.4330   -1.3660   -2.7310 o         1 MOL     -0.552268
    106 C34         3.6830   -2.5710   -2.5850 c3        1 MOL     -0.613261
    107 C35         2.3130   -3.2170   -2.2040 c         1 MOL      1.154145
    108 O17         2.2510   -4.4110   -2.0130 o         1 MOL     -0.863512
    109 O18         1.2750   -2.5250   -2.2540 o         1 MOL     -0.863512
    110 H47         3.1040   -1.4940   -0.3140 hn        1 MOL      0.084945
    111 H48         5.1770   -3.1790   -1.2170 h1        1 MOL      0.028849
    112 H49         4.2110   -3.2950   -3.1990 hc        1 MOL      0.135191
    113 H50         3.5460   -1.5900   -3.0320 hc        1 MOL      0.135191
    114 N11         5.7660   -0.1030   -0.9620 n         1 MOL     -0.301801
    115 C36         6.7790    0.9710   -1.2050 c3        1 MOL      0.096003
    116 C37         6.3960    2.3480   -0.5520 c         1 MOL      0.514864
    117 O19         6.0950    2.3960    0.6810 o         1 MOL     -0.543399
    118 C38         8.1120    0.5000   -0.6930 c3        1 MOL     -0.256867
    119 C39         9.2460    1.4850   -0.7820 ca        1 MOL      0.057788
    120 C40         9.5500    2.3370    0.3270 ca        1 MOL     -0.114547
    121 C41         9.9670    1.7470   -1.9500 ca        1 MOL     -0.114547
    122 C42        10.6170    3.3060    0.2980 ca        1 MOL     -0.156239
    123 C43        11.0650    2.6530   -1.9220 ca        1 MOL     -0.156239
    124 C44        11.3720    3.4840   -0.8590 ca        1 MOL     -0.071308
    125 H51         5.0000    0.0370   -0.3040 hn        1 MOL      0.179656
    126 H52         6.8580    1.0830   -2.2840 h1        1 MOL      0.072049
    127 H53         8.3360   -0.3830   -1.2950 hc        1 MOL      0.128497
    128 H54         8.0780    0.1410    0.3350 hc        1 MOL      0.128497
    129 H55         9.0020    2.1350    1.2430 ha        1 MOL      0.117029
    130 H56         9.8990    1.1850   -2.8730 ha        1 MOL      0.117029
    131 H57        10.8170    3.8030    1.2310 ha        1 MOL      0.109522
    132 H58        11.6310    2.7130   -2.8450 ha        1 MOL      0.109522
    133 H59        12.2190    4.1540   -0.9240 ha        1 MOL      0.101248
    134 N12         6.3630    3.4210   -1.3180 n         1 MOL     -0.307126
    135 C45         6.1380    4.8550   -0.8140 c3        1 MOL      0.170640
    136 C46         4.7040    5.2250   -0.2740 c         1 MOL      0.194965
    137 O20         4.3620    6.4440    0.0530 o         1 MOL     -0.524981
    138 C47         6.5230    5.8680   -1.9100 c3        1 MOL     -0.049394
    139 C48         7.5340    5.0010   -2.6380 c3        1 MOL      0.010373
    140 C49         6.8970    3.5920   -2.6410 c3        1 MOL     -0.064646
    141 H60         6.7430    5.0900    0.0560 h1        1 MOL      0.078132
    142 H61         5.7090    6.2270   -2.5440 hc        1 MOL      0.054776
    143 H62         7.0460    6.7530   -1.5360 hc        1 MOL      0.054776
    144 H63         7.6390    5.3820   -3.6500 hc        1 MOL      0.012125
    145 H64         8.4840    4.9460   -2.0940 hc        1 MOL      0.012125
    146 H65         6.0590    3.6270   -3.3450 h1        1 MOL      0.070123
    147 H66         7.6850    2.9510   -3.0430 h1        1 MOL      0.070123
    148 N13         3.8080    4.2790   -0.0180 n         1 MOL     -0.024713
    149 C50         2.4730    4.4380    0.5940 c3        1 MOL     -0.365392
    150 C51         2.4830    5.0440    2.0240 c         1 MOL      0.521072
    151 O21         1.4350    5.4830    2.5850 o         1 MOL     -0.520851
    152 C52         1.5540    3.2730    0.4730 c3        1 MOL     -0.128199
    153 C53         2.0910    1.9620    1.1460 c3        1 MOL     -0.112354
    154 C54         1.3100    0.6840    0.5960 c         1 MOL      0.712566
    155 O22         1.7580   -0.1030   -0.2700 o         1 MOL     -0.739217
    156 O23         0.2470    0.3980    1.0690 o         1 MOL     -0.739217
    157 H67         4.1390    3.3450   -0.1900 hn        1 MOL      0.164210
    158 H68         2.0100    5.2430    0.0280 h1        1 MOL      0.198171
    159 H69         1.3660    3.1450   -0.5960 hc        1 MOL      0.110099
    160 H70         0.6010    3.4920    0.9600 hc        1 MOL      0.110099
    161 H71         2.0000    1.9510    2.2270 hc        1 MOL      0.054901
    162 H72         3.1140    1.7490    0.8400 hc        1 MOL      0.054901
    163 N14         3.6920    5.0040    2.5900 n         1 MOL     -0.175339
    164 C55         3.9320    5.5560    4.0180 c3        1 MOL     -0.205289
    165 H73         3.0670    5.3340    4.6420 h1        1 MOL      0.097040
    166 H74         4.8180    5.0860    4.4450 h1        1 MOL      0.097040
    167 H75         4.0790    6.6350    3.9700 h1        1 MOL      0.097040
    168 H76         4.3720    4.3950    2.1590 hn        1 MOL      0.208061
    169 Ca1        -0.4780   -1.3970   -0.7400 Ca        1 MOL      1.751926
    170 O24        -0.6020    0.4560   -2.7960 oh        1 MOL     -0.823195
    171 H77        -0.1290    0.2170   -3.5890 ho        1 MOL      0.403541
    172 H78        -1.3170    1.0090   -3.1010 ho        1 MOL      0.403541
    173 O25        -2.3140   -2.2780    1.5810 oh        1 MOL     -0.823195
    174 H79        -2.0360   -1.4940    2.0700 ho        1 MOL      0.403541
    175 H80        -3.2580   -2.1530    1.4500 ho        1 MOL      0.403541
@<TRIPOS>BOND
     1    1    2 1   
     2    1    4 1   
     3    1    5 1   
     4    1    6 1   
     5    2    3 2   
     6    2    7 1   
     7    7    8 1   
     8    7   15 1   
     9    8    9 1   
    10    8   11 1   
    11    8   16 1   
    12    9   10 2   
    13    9   19 1   
    14   11   12 1   
    15   11   17 1   
    16   11   18 1   
    17   12   13 1   
    18   12   14 1   
    19   19   20 1   
    20   19   24 1   
    21   20   21 1   
    22   20   23 1   
    23   20   25 1   
    24   21   22 2   
    25   21   29 1   
    26   23   26 1   
    27   23   27 1   
    28   23   28 1   
    29   29   30 1   
    30   29   37 1   
    31   30   31 1   
    32   30   33 1   
    33   30   38 1   
    34   31   32 2   
    35   31   41 1   
    36   33   34 1   
    37   33   39 1   
    38   33   40 1   
    39   34   35 1   
    40   34   36 1   
    41   41   42 1   
    42   41   45 1   
    43   42   43 1   
    44   42   46 1   
    45   42   47 1   
    46   43   44 2   
    47   43   48 1   
    48   48   49 1   
    49   48   56 1   
    50   49   50 1   
    51   49   52 1   
    52   49   57 1   
    53   50   51 2   
    54   50   62 1   
    55   52   53 1   
    56   52   58 1   
    57   52   59 1   
    58   53   54 1   
    59   53   55 2   
    60   54   60 1   
    61   54   61 1   
    62   62   63 1   
    63   62   66 1   
    64   63   64 1   
    65   63   67 1   
    66   63   68 1   
    67   64   65 2   
    68   64   69 1   
    69   69   70 1   
    70   69   76 1   
    71   70   71 1   
    72   70   73 1   
    73   70   77 1   
    74   71   72 2   
    75   71   83 1   
    76   73   74 1   
    77   73   75 1   
    78   73   78 1   
    79   74   80 1   
    80   74   81 1   
    81   74   82 1   
    82   75   79 1   
    83   83   84 1   
    84   83   91 1   
    85   84   85 1   
    86   84   87 1   
    87   84   92 1   
    88   85   86 2   
    89   85  102 1   
    90   87   88 1   
    91   87   89 1   
    92   87   93 1   
    93   88   90 1   
    94   88   94 1   
    95   88   95 1   
    96   89   96 1   
    97   89   97 1   
    98   89   98 1   
    99   90   99 1   
   100   90  100 1   
   101   90  101 1   
   102  102  103 1   
   103  102  110 1   
   104  103  104 1   
   105  103  106 1   
   106  103  111 1   
   107  104  105 2   
   108  104  114 1   
   109  106  107 1   
   110  106  112 1   
   111  106  113 1   
   112  107  108 1   
   113  107  109 1   
   114  114  115 1   
   115  114  125 1   
   116  115  116 1   
   117  115  118 1   
   118  115  126 1   
   119  116  117 2   
   120  116  134 1   
   121  118  119 1   
   122  118  127 1   
   123  118  128 1   
   124  119  120 ar  
   125  119  121 ar  
   126  120  122 ar  
   127  120  129 1   
   128  121  123 ar  
   129  121  130 1   
   130  122  124 ar  
   131  122  131 1   
   132  123  124 ar  
   133  123  132 1   
   134  124  133 1   
   135  134  135 1   
   136  134  140 1   
   137  135  136 1   
   138  135  138 1   
   139  135  141 1   
   140  136  137 2   
   141  136  148 1   
   142  138  139 1   
   143  138  142 1   
   144  138  143 1   
   145  139  140 1   
   146  139  144 1   
   147  139  145 1   
   148  140  146 1   
   149  140  147 1   
   150  148  149 1   
   151  148  157 1   
   152  149  150 1   
   153  149  152 1   
   154  149  158 1   
   155  150  151 2   
   156  150  163 1   
   157  152  153 1   
   158  152  159 1   
   159  152  160 1   
   160  153  154 1   
   161  153  161 1   
   162  153  162 1   
   163  154  155 1   
   164  154  156 1   
   165  163  164 1   
   166  163  168 1   
   167  164  165 1   
   168  164  166 1   
   169  164  167 1   
   170  170  171 1   
   171  170  172 1   
   172  173  174 1   
   173  173  175 1   
@<TRIPOS>SUBSTRUCTURE
     1 MOL         1 TEMP              0 ****  ****    0 ROOT
