@<TRIPOS>MOLECULE
MOL
  189   185     1     0     0
SMALL
resp


@<TRIPOS>ATOM
      1 C1          6.0330   -5.4690   -2.1670 c3        1 MOL     -0.317882
      2 C2          4.6410   -4.7870   -1.8020 c         1 MOL      0.600323
      3 O1          4.1770   -3.9170   -2.6090 o         1 MOL     -0.513026
      4 H1          6.4050   -6.0190   -1.3030 hc        1 MOL      0.065537
      5 H2          5.8930   -6.1570   -3.0020 hc        1 MOL      0.065537
      6 H3          6.7530   -4.7010   -2.4460 hc        1 MOL      0.065537
      7 N1          4.1590   -5.0730   -0.5810 n         1 MOL     -0.410414
      8 C3          3.1900   -4.2920    0.2610 c3        1 MOL     -0.452599
      9 C4          1.6920   -4.3530   -0.2660 c         1 MOL      0.743183
     10 O2          0.8480   -3.5650    0.1310 o         1 MOL     -0.601575
     11 C5          3.6130   -2.8690    0.5730 c3        1 MOL      0.096409
     12 C6          5.0620   -2.7740    0.9670 c         1 MOL      0.451659
     13 O3          5.4720   -3.4050    2.0100 o         1 MOL     -0.702037
     14 O4          5.8760   -2.0170    0.4180 o         1 MOL     -0.702037
     15 H4          4.7300   -5.6890   -0.0190 hn        1 MOL      0.293560
     16 H5          3.2240   -4.8200    1.2140 h1        1 MOL      0.191746
     17 H6          2.9630   -2.5500    1.3950 hc        1 MOL      0.122657
     18 H7          3.4260   -2.1860   -0.2600 hc        1 MOL      0.122657
     19 N2          1.3640   -5.2290   -1.2150 n         1 MOL     -0.533742
     20 C7         -0.0200   -5.3210   -1.7820 c3        1 MOL      0.284354
     21 C8         -0.8650   -6.3070   -0.9850 c         1 MOL      0.393997
     22 O5         -0.6530   -7.5410   -1.1410 o         1 MOL     -0.586453
     23 C9         -0.0160   -5.6420   -3.2600 c3        1 MOL      0.179173
     24 C10         0.9800   -4.6680   -3.9830 c3        1 MOL      0.002703
     25 C11        -1.4150   -5.5260   -3.8080 c3        1 MOL     -0.135656
     26 C12         0.7500   -4.5170   -5.5450 c3        1 MOL     -0.450052
     27 H8          2.0710   -5.8060   -1.6390 hn        1 MOL      0.256494
     28 H9         -0.4820   -4.3420   -1.6610 h1        1 MOL     -0.099693
     29 H10         0.3410   -6.6700   -3.3440 hc        1 MOL     -0.065823
     30 H11         1.9850   -5.0460   -3.8120 hc        1 MOL      0.059608
     31 H12         0.8500   -3.6770   -3.5400 hc        1 MOL      0.059608
     32 H13        -1.5300   -5.7350   -4.8710 hc        1 MOL      0.030118
     33 H14        -2.1300   -6.1970   -3.3390 hc        1 MOL      0.030118
     34 H15        -1.6110   -4.4570   -3.7650 hc        1 MOL      0.030118
     35 H16         0.7490   -5.5020   -5.9950 hc        1 MOL      0.110673
     36 H17        -0.2020   -3.9920   -5.6830 hc        1 MOL      0.110673
     37 H18         1.5710   -3.8870   -5.8860 hc        1 MOL      0.110673
     38 N3         -2.0250   -5.9670   -0.3890 n         1 MOL     -0.341497
     39 C13        -2.5430   -4.7300    0.1690 c3        1 MOL      0.233458
     40 C14        -3.0640   -4.8620    1.5980 c         1 MOL      0.442596
     41 O6         -3.2820   -5.9900    2.0400 o         1 MOL     -0.536925
     42 C15        -3.5270   -4.1360   -0.9000 c3        1 MOL     -0.286803
     43 C16        -3.9220   -2.8060   -0.4000 c         1 MOL      0.633464
     44 O7         -5.0370   -2.6520    0.1370 o         1 MOL     -0.615314
     45 O8         -3.1570   -1.9110   -0.1660 o         1 MOL     -0.615314
     46 H19        -2.5600   -6.7890   -0.1430 hn        1 MOL      0.249811
     47 H20        -1.6930   -4.0470    0.1570 h1        1 MOL      0.007517
     48 H21        -4.3540   -4.8160   -1.1210 hc        1 MOL      0.047186
     49 H22        -2.9490   -3.9280   -1.7990 hc        1 MOL      0.047186
     50 N4         -3.1660   -3.7310    2.3230 n         1 MOL     -0.336631
     51 C17        -3.5370   -3.8020    3.7300 c3        1 MOL     -0.093356
     52 C18        -4.7630   -2.9350    4.1090 c         1 MOL      0.648823
     53 O9         -5.1370   -2.8540    5.2830 o         1 MOL     -0.621339
     54 H23        -2.7860   -2.8730    1.9400 hn        1 MOL      0.308064
     55 H24        -2.7100   -3.4090    4.3120 h1        1 MOL      0.079466
     56 H25        -3.6820   -4.8370    4.0170 h1        1 MOL      0.079466
     57 N5         -5.3620   -2.1940    3.1820 n         1 MOL     -0.637141
     58 C19        -6.4000   -1.1610    3.5760 c3        1 MOL      0.227362
     59 C20        -7.3590   -0.6840    2.4890 c         1 MOL      0.225327
     60 O10        -8.2920    0.1120    2.7740 o         1 MOL     -0.564934
     61 C21        -5.6560    0.0700    4.0400 c3        1 MOL     -0.441226
     62 C22        -4.5830    0.5170    3.0590 c         1 MOL      0.766517
     63 O11        -4.9630    1.0280    2.0220 o         1 MOL     -0.668882
     64 O12        -3.3710    0.3060    3.2240 o         1 MOL     -0.668882
     65 H26        -4.9250   -2.2080    2.2620 hn        1 MOL      0.409006
     66 H27        -7.0300   -1.6230    4.3330 h1        1 MOL      0.089424
     67 H28        -5.0640   -0.2420    4.9110 hc        1 MOL      0.095954
     68 H29        -6.3080    0.9000    4.3180 hc        1 MOL      0.095954
     69 N6         -7.2240   -1.1450    1.2760 n         1 MOL      0.120677
     70 C23        -8.2400   -0.9050    0.2380 c3        1 MOL     -0.184234
     71 C24        -8.1490    0.5210   -0.3360 c         1 MOL      0.722995
     72 O13        -8.9260    0.7940   -1.2460 o         1 MOL     -0.608900
     73 H30        -6.4390   -1.7480    1.0900 hn        1 MOL     -0.007163
     74 H31        -9.1740   -0.9980    0.8040 h1        1 MOL      0.067995
     75 H32        -8.1930   -1.6660   -0.5400 h1        1 MOL      0.067995
     76 N7         -7.2610    1.3860    0.2650 n         1 MOL     -0.537189
     77 C25        -7.0280    2.7980   -0.0590 c3        1 MOL      0.048539
     78 C26        -6.7140    3.0320   -1.5360 c         1 MOL      0.522172
     79 O14        -7.0180    4.0940   -2.0520 o         1 MOL     -0.526770
     80 C27        -8.0960    3.6910    0.5180 c3        1 MOL     -0.221715
     81 C28        -8.4780    3.2920    1.9560 c3        1 MOL     -0.036634
     82 C29        -9.4800    4.2470    2.5870 c         1 MOL      0.538644
     83 N8         -9.6450    4.1130    3.9340 n         1 MOL     -0.790470
     84 O15       -10.1860    4.9450    1.8500 o         1 MOL     -0.539676
     85 H33        -6.6980    1.0650    1.0310 hn        1 MOL      0.305636
     86 H34        -6.1290    2.9770    0.5290 h1        1 MOL      0.093063
     87 H35        -9.0000    3.7320   -0.0890 hc        1 MOL      0.089488
     88 H36        -7.7340    4.7250    0.4620 hc        1 MOL      0.089488
     89 H37        -7.5840    3.1150    2.5610 hc        1 MOL      0.087407
     90 H38        -8.9400    2.3100    1.9090 hc        1 MOL      0.087407
     91 H39        -9.2590    3.3590    4.4860 hn        1 MOL      0.344746
     92 H40       -10.0040    4.9550    4.3810 hn        1 MOL      0.344746
     93 N9         -5.9970    2.0940   -2.2010 n         1 MOL     -0.414064
     94 C30        -5.4940    2.2620   -3.5690 c3        1 MOL     -0.101479
     95 C31        -3.9690    2.0000   -3.8300 c         1 MOL      0.646319
     96 O16        -3.4930    2.2290   -4.9110 o         1 MOL     -0.614172
     97 C32        -6.3220    1.3740   -4.5420 c3        1 MOL      0.355279
     98 C33        -6.2740   -0.1470   -4.3250 c3        1 MOL     -0.362065
     99 C34        -7.7750    1.9060   -4.5000 c3        1 MOL     -0.362065
    100 H41        -5.7120    1.2900   -1.6590 hn        1 MOL      0.314805
    101 H42        -5.6560    3.2580   -3.9730 h1        1 MOL      0.093315
    102 H43        -5.9210    1.5150   -5.5410 hc        1 MOL     -0.059426
    103 H44        -5.2320   -0.4480   -4.4090 hc        1 MOL      0.079332
    104 H45        -6.6590   -0.3700   -3.3230 hc        1 MOL      0.079332
    105 H46        -6.6800   -0.6970   -5.1660 hc        1 MOL      0.079332
    106 H47        -8.3480    1.4780   -5.3200 hc        1 MOL      0.079332
    107 H48        -8.2570    1.5580   -3.5820 hc        1 MOL      0.079332
    108 H49        -7.8090    2.9990   -4.5770 hc        1 MOL      0.079332
    109 N10        -3.1680    1.6140   -2.8600 n         1 MOL     -0.576648
    110 C35        -1.7280    1.2310   -2.7370 c3        1 MOL      0.551885
    111 C36        -1.0350    1.8190   -1.5180 c         1 MOL      0.413817
    112 O17        -1.6760    2.1350   -0.5420 o         1 MOL     -0.501326
    113 C37        -1.7030   -0.2320   -3.0160 c3        1 MOL     -0.357831
    114 C38        -0.4060   -0.9900   -2.6170 c         1 MOL      0.562841
    115 N11        -0.5220   -1.8670   -1.7440 n         1 MOL     -0.343414
    116 O18         0.6320   -0.7830   -3.2290 o         1 MOL     -0.606895
    117 H50        -3.6880    1.4410   -2.0130 hn        1 MOL      0.215714
    118 H51        -1.2600    1.8160   -3.5370 h1        1 MOL     -0.012608
    119 H52        -1.8980   -0.3500   -4.0860 hc        1 MOL      0.082267
    120 H53        -2.5420   -0.7050   -2.5040 hc        1 MOL      0.082267
    121 H54        -1.3080   -1.7510   -1.1220 hn        1 MOL      0.237330
    122 H55         0.3310   -2.3130   -1.4170 hn        1 MOL      0.237330
    123 N12         0.3000    1.8390   -1.5630 n         1 MOL     -0.622914
    124 C39         1.2420    2.1590   -0.3790 c3        1 MOL      0.682525
    125 C40         2.4180    3.0090   -0.8370 c         1 MOL      0.412900
    126 O19         2.9810    2.7270   -1.9150 o         1 MOL     -0.545486
    127 C41         1.7610    0.9620    0.4350 c3        1 MOL     -0.362307
    128 C42         2.0920    1.2930    1.9180 ca        1 MOL     -0.083943
    129 C43         1.1030    1.0990    2.9160 ca        1 MOL     -0.010496
    130 C44         3.3710    1.7390    2.2570 ca        1 MOL     -0.010496
    131 C45         1.5080    1.4100    4.1780 ca        1 MOL     -0.387325
    132 C46         3.7920    2.0710    3.5540 ca        1 MOL     -0.387325
    133 C47         2.8250    1.8800    4.5140 ca        1 MOL      0.460409
    134 O20         3.1100    2.1670    5.8080 oh        1 MOL     -0.556377
    135 H56         0.7100    1.5470   -2.4360 hn        1 MOL      0.256948
    136 H57         0.6780    2.8670    0.2320 h1        1 MOL     -0.051748
    137 H58         2.5840    0.5760   -0.1590 hc        1 MOL      0.070389
    138 H59         1.0540    0.1270    0.4120 hc        1 MOL      0.070389
    139 H60         0.0960    0.7630    2.7380 ha        1 MOL      0.168005
    140 H61         4.1130    1.6380    1.4770 ha        1 MOL      0.168005
    141 H62         0.8240    1.2920    5.0080 ha        1 MOL      0.169783
    142 H63         4.7840    2.4770    3.7090 ha        1 MOL      0.169783
    143 H64         4.0330    2.4170    5.9140 ho        1 MOL      0.374362
    144 N13         2.8340    4.0400   -0.0840 n         1 MOL     -0.681957
    145 C48         3.8100    5.0480   -0.5810 c3        1 MOL      0.140256
    146 C49         4.9160    5.2360    0.4630 c         1 MOL      0.573417
    147 O21         4.6140    5.9290    1.4460 o         1 MOL     -0.542918
    148 C50         3.0520    6.3730   -1.0250 c3        1 MOL      0.086713
    149 C51         3.9280    7.4840   -1.6820 c3        1 MOL     -0.248733
    150 C52         4.7090    8.3480   -0.6960 c         1 MOL      0.767262
    151 O22         4.0800    8.9780    0.1530 o         1 MOL     -0.688357
    152 O23         5.9290    8.4760   -0.9150 o         1 MOL     -0.688357
    153 H65         2.3500    4.2640    0.7860 hn        1 MOL      0.353851
    154 H66         4.2510    4.7100   -1.5140 h1        1 MOL      0.095448
    155 H67         2.4160    6.7980   -0.2450 hc        1 MOL      0.003033
    156 H68         2.3300    6.0230   -1.7500 hc        1 MOL      0.003033
    157 H69         3.2430    8.1030   -2.2550 hc        1 MOL      0.028228
    158 H70         4.6190    6.9860   -2.3630 hc        1 MOL      0.028228
    159 N14         6.1020    4.6580    0.3050 n         1 MOL     -0.593627
    160 C53         6.3470    3.3660   -0.4430 c3        1 MOL      0.145388
    161 C54         6.5370    3.5200   -1.9900 c         1 MOL      0.403674
    162 O24         7.0120    4.5620   -2.4340 o         1 MOL     -0.507561
    163 C55         7.5380    2.6050    0.0700 c3        1 MOL      0.280232
    164 C56         7.3110    1.9880    1.4250 c3        1 MOL     -0.560376
    165 C57         7.7120    0.5260    1.4910 c         1 MOL      0.694938
    166 O25         7.2740   -0.1600    2.4530 o         1 MOL     -0.621309
    167 O26         8.4780   -0.0450    0.6460 o         1 MOL     -0.621309
    168 H71         6.8140    4.9790    0.9430 hn        1 MOL      0.328107
    169 H72         5.4840    2.7320   -0.2680 h1        1 MOL      0.046649
    170 H73         8.3750    3.3040    0.0170 hc        1 MOL     -0.057010
    171 H74         7.7430    1.8490   -0.6950 hc        1 MOL     -0.057010
    172 H75         6.2610    2.0420    1.7110 hc        1 MOL      0.120439
    173 H76         7.8550    2.5130    2.2010 hc        1 MOL      0.120439
    174 N15         6.2210    2.4550   -2.7560 n         1 MOL     -0.169780
    175 C58         6.2370    2.3960   -4.2570 c3        1 MOL     -0.530332
    176 H77         5.5870    3.1730   -4.6580 h1        1 MOL      0.182611
    177 H78         7.2540    2.5520   -4.6160 h1        1 MOL      0.182611
    178 H79         5.8810    1.4200   -4.5860 h1        1 MOL      0.182611
    179 H80         5.7800    1.6460   -2.3530 hn        1 MOL      0.240616
    180 Ca1         8.0910   -2.5330    1.5410 Ca        1 MOL      1.668974
    181 O27         7.7210   -3.0530    4.2600 oh        1 MOL     -0.982589
    182 H81         6.9610   -3.3520    4.7420 ho        1 MOL      0.442448
    183 H82         8.3370   -2.7600    4.9330 ho        1 MOL      0.442448
    184 O28        10.3000   -1.4180    2.7210 oh        1 MOL     -0.982589
    185 H83        10.9710   -2.0110    3.0480 ho        1 MOL      0.442448
    186 H84        10.4380   -0.6010    3.1970 ho        1 MOL      0.442448
    187 O29        10.3670   -2.3400   -0.0710 oh        1 MOL     -0.982589
    188 H85        11.1100   -2.9340   -0.1810 ho        1 MOL      0.442448
    189 H86        10.7530   -1.4660   -0.0970 ho        1 MOL      0.442448
@<TRIPOS>BOND
     1    1    2 1   
     2    1    4 1   
     3    1    5 1   
     4    1    6 1   
     5    2    3 2   
     6    2    7 1   
     7    7    8 1   
     8    7   15 1   
     9    8    9 1   
    10    8   11 1   
    11    8   16 1   
    12    9   10 2   
    13    9   19 1   
    14   11   12 1   
    15   11   17 1   
    16   11   18 1   
    17   12   13 1   
    18   12   14 1   
    19   19   20 1   
    20   19   27 1   
    21   20   21 1   
    22   20   23 1   
    23   20   28 1   
    24   21   22 2   
    25   21   38 1   
    26   23   24 1   
    27   23   25 1   
    28   23   29 1   
    29   24   26 1   
    30   24   30 1   
    31   24   31 1   
    32   25   32 1   
    33   25   33 1   
    34   25   34 1   
    35   26   35 1   
    36   26   36 1   
    37   26   37 1   
    38   38   39 1   
    39   38   46 1   
    40   39   40 1   
    41   39   42 1   
    42   39   47 1   
    43   40   41 2   
    44   40   50 1   
    45   42   43 1   
    46   42   48 1   
    47   42   49 1   
    48   43   44 1   
    49   43   45 1   
    50   50   51 1   
    51   50   54 1   
    52   51   52 1   
    53   51   55 1   
    54   51   56 1   
    55   52   53 2   
    56   52   57 1   
    57   57   58 1   
    58   57   65 1   
    59   58   59 1   
    60   58   61 1   
    61   58   66 1   
    62   59   60 2   
    63   59   69 1   
    64   61   62 1   
    65   61   67 1   
    66   61   68 1   
    67   62   63 1   
    68   62   64 1   
    69   69   70 1   
    70   69   73 1   
    71   70   71 1   
    72   70   74 1   
    73   70   75 1   
    74   71   72 2   
    75   71   76 1   
    76   76   77 1   
    77   76   85 1   
    78   77   78 1   
    79   77   80 1   
    80   77   86 1   
    81   78   79 2   
    82   78   93 1   
    83   80   81 1   
    84   80   87 1   
    85   80   88 1   
    86   81   82 1   
    87   81   89 1   
    88   81   90 1   
    89   82   83 1   
    90   82   84 2   
    91   83   91 1   
    92   83   92 1   
    93   93   94 1   
    94   93  100 1   
    95   94   95 1   
    96   94   97 1   
    97   94  101 1   
    98   95   96 2   
    99   95  109 1   
   100   97   98 1   
   101   97   99 1   
   102   97  102 1   
   103   98  103 1   
   104   98  104 1   
   105   98  105 1   
   106   99  106 1   
   107   99  107 1   
   108   99  108 1   
   109  109  110 1   
   110  109  117 1   
   111  110  111 1   
   112  110  113 1   
   113  110  118 1   
   114  111  112 2   
   115  111  123 1   
   116  113  114 1   
   117  113  119 1   
   118  113  120 1   
   119  114  115 1   
   120  114  116 2   
   121  115  121 1   
   122  115  122 1   
   123  123  124 1   
   124  123  135 1   
   125  124  125 1   
   126  124  127 1   
   127  124  136 1   
   128  125  126 2   
   129  125  144 1   
   130  127  128 1   
   131  127  137 1   
   132  127  138 1   
   133  128  129 ar  
   134  128  130 ar  
   135  129  131 ar  
   136  129  139 1   
   137  130  132 ar  
   138  130  140 1   
   139  131  133 ar  
   140  131  141 1   
   141  132  133 ar  
   142  132  142 1   
   143  133  134 1   
   144  134  143 1   
   145  144  145 1   
   146  144  153 1   
   147  145  146 1   
   148  145  148 1   
   149  145  154 1   
   150  146  147 2   
   151  146  159 1   
   152  148  149 1   
   153  148  155 1   
   154  148  156 1   
   155  149  150 1   
   156  149  157 1   
   157  149  158 1   
   158  150  151 1   
   159  150  152 1   
   160  159  160 1   
   161  159  168 1   
   162  160  161 1   
   163  160  163 1   
   164  160  169 1   
   165  161  162 2   
   166  161  174 1   
   167  163  164 1   
   168  163  170 1   
   169  163  171 1   
   170  164  165 1   
   171  164  172 1   
   172  164  173 1   
   173  165  166 1   
   174  165  167 1   
   175  174  175 1   
   176  174  179 1   
   177  175  176 1   
   178  175  177 1   
   179  175  178 1   
   180  181  182 1   
   181  181  183 1   
   182  184  185 1   
   183  184  186 1   
   184  187  188 1   
   185  187  189 1   
@<TRIPOS>SUBSTRUCTURE
     1 MOL         1 TEMP              0 ****  ****    0 ROOT
