@<TRIPOS>MOLECULE
MOL
  192   187     1     0     0
SMALL
resp


@<TRIPOS>ATOM
      1 C1         -3.5230    2.7820   -2.5760 c3        1 MOL     -0.130149
      2 C2         -2.7400    3.4180   -1.4480 c         1 MOL      0.657434
      3 O1         -1.7870    2.7990   -1.0090 o         1 MOL     -0.543215
      4 H1         -3.3450    1.7070   -2.5800 hc        1 MOL      0.012752
      5 H2         -4.5860    2.9730   -2.4350 hc        1 MOL      0.012752
      6 H3         -3.2000    3.2060   -3.5280 hc        1 MOL      0.012752
      7 N1         -3.1280    4.6180   -1.0210 n         1 MOL     -0.314460
      8 C3         -2.5160    5.4730    0.0030 c3        1 MOL      0.021025
      9 C4         -0.9710    5.5950   -0.0740 c         1 MOL      0.735133
     10 O2         -0.3080    5.8080    0.9140 o         1 MOL     -0.521046
     11 C5         -3.0320    5.1990    1.4150 c3        1 MOL     -0.665631
     12 C6         -4.5130    4.9100    1.6320 c         1 MOL      0.957914
     13 O3         -5.4350    5.3650    0.9070 o         1 MOL     -0.752011
     14 O4         -4.8230    4.1000    2.5360 o         1 MOL     -0.752011
     15 H4         -3.9890    5.0660   -1.3150 hn        1 MOL      0.145412
     16 H5         -2.9380    6.4430   -0.2610 h1        1 MOL      0.072617
     17 H6         -2.8130    6.1150    1.9650 hc        1 MOL      0.194076
     18 H7         -2.5730    4.3340    1.8960 hc        1 MOL      0.194076
     19 N2         -0.3950    5.3550   -1.2900 n         1 MOL     -0.603892
     20 C7          1.0300    5.4500   -1.5440 c3        1 MOL     -0.267206
     21 C8          1.6660    6.7890   -1.2150 c         1 MOL      0.623784
     22 O5          0.9790    7.8220   -1.1300 o         1 MOL     -0.610468
     23 C9          1.4250    4.9160   -2.9500 c3        1 MOL      0.517973
     24 C10         0.8410    5.7880   -4.0830 c3        1 MOL      0.018639
     25 C11         1.0110    3.4450   -3.0580 c3        1 MOL     -0.324210
     26 C12         1.2790    5.3790   -5.5230 c3        1 MOL     -0.223988
     27 H8         -1.0350    5.2380   -2.0730 hn        1 MOL      0.240294
     28 H9          1.5470    4.7520   -0.8780 h1        1 MOL      0.231861
     29 H10         2.4950    5.0120   -3.1050 hc        1 MOL     -0.081152
     30 H11         1.1220    6.8390   -3.9870 hc        1 MOL     -0.005104
     31 H12        -0.2390    5.6810   -4.0580 hc        1 MOL     -0.005104
     32 H13         1.6460    2.8400   -2.4230 hc        1 MOL      0.063947
     33 H14        -0.0560    3.2550   -2.9100 hc        1 MOL      0.063947
     34 H15         1.1170    3.0250   -4.0570 hc        1 MOL      0.063947
     35 H16         1.1420    4.3280   -5.7950 hc        1 MOL      0.041989
     36 H17         0.7460    6.0150   -6.2280 hc        1 MOL      0.041989
     37 H18         2.3160    5.6460   -5.6900 hc        1 MOL      0.041989
     38 N3          2.9350    6.9190   -0.8280 n         1 MOL     -0.541188
     39 C13         3.9270    5.8420   -0.7800 c3        1 MOL     -0.080243
     40 C14         4.7130    5.8810    0.5170 c         1 MOL      0.670649
     41 O6          5.4110    6.8540    0.7430 o         1 MOL     -0.537978
     42 C15         4.8420    6.1030   -1.9870 c3        1 MOL     -0.082111
     43 C16         5.8920    4.9830   -2.1540 c         1 MOL      0.651576
     44 O7          5.5580    3.7810   -1.9100 o         1 MOL     -0.680715
     45 O8          7.0620    5.3510   -2.4400 o         1 MOL     -0.680715
     46 H19         3.2020    7.8270   -0.4890 hn        1 MOL      0.331770
     47 H20         3.4850    4.8540   -0.9030 h1        1 MOL      0.010137
     48 H21         5.2530    7.1050   -1.8880 hc        1 MOL      0.024773
     49 H22         4.2040    6.1570   -2.8720 hc        1 MOL      0.024773
     50 N4          4.6650    4.7850    1.3560 n         1 MOL     -0.432229
     51 C17         5.3620    4.8140    2.6600 c3        1 MOL      0.030435
     52 C18         6.2910    3.5590    2.8140 c         1 MOL      0.427246
     53 O9          7.4970    3.6360    2.5220 o         1 MOL     -0.485952
     54 H23         3.9970    4.0670    1.1050 hn        1 MOL      0.278517
     55 H24         4.6770    4.7600    3.5050 h1        1 MOL      0.032241
     56 H25         5.9770    5.7000    2.7900 h1        1 MOL      0.032241
     57 N5          5.6760    2.4300    3.2080 n         1 MOL     -0.374313
     58 C19         6.2580    1.1290    3.4180 c3        1 MOL      0.105129
     59 C20         7.2420    0.5890    2.2950 c         1 MOL      0.307464
     60 O10         8.3710    0.0910    2.4580 o         1 MOL     -0.522275
     61 C21         5.2320    0.0220    3.5970 c3        1 MOL     -0.465737
     62 C22         4.1740    0.0700    2.4960 c         1 MOL      0.748309
     63 O11         3.1720    0.8210    2.4650 o         1 MOL     -0.670689
     64 O12         4.3260   -0.7740    1.5340 o         1 MOL     -0.670689
     65 H26         4.6840    2.5070    3.3720 hn        1 MOL      0.264031
     66 H27         6.8490    1.2510    4.3360 h1        1 MOL      0.051132
     67 H28         4.7620    0.2130    4.5640 hc        1 MOL      0.124119
     68 H29         5.6980   -0.9630    3.6270 hc        1 MOL      0.124119
     69 N6          6.8570    0.7130    1.0180 n         1 MOL     -0.004034
     70 C23         7.5800    0.2040   -0.1640 c3        1 MOL     -0.287373
     71 C24         7.6510   -1.3110   -0.1750 c         1 MOL      0.675321
     72 O13         8.3790   -1.9000   -0.9150 o         1 MOL     -0.620423
     73 H30         5.9250    1.0320    0.7910 hn        1 MOL      0.220316
     74 H31         8.5830    0.6240   -0.0850 h1        1 MOL      0.121359
     75 H32         7.0800    0.6020   -1.0390 h1        1 MOL      0.121359
     76 N7          6.7060   -1.9800    0.5700 n         1 MOL     -0.012229
     77 C25         6.6000   -3.3840    0.8940 c3        1 MOL     -0.284846
     78 C26         6.0900   -4.2650   -0.2420 c         1 MOL      0.598554
     79 O14         6.3500   -5.4870   -0.2500 o         1 MOL     -0.525048
     80 C27         7.8760   -3.8170    1.5860 c3        1 MOL      0.178999
     81 C28         7.9820   -3.4040    3.0590 c3        1 MOL     -0.223506
     82 C29         7.0030   -4.1720    3.9410 c         1 MOL      0.695880
     83 N8          7.0040   -3.8910    5.1930 n         1 MOL     -0.842022
     84 O15         6.3350   -5.0470    3.5170 o         1 MOL     -0.534006
     85 H33         6.1720   -1.3160    1.1100 hn        1 MOL     -0.052231
     86 H34         5.8680   -3.4030    1.7030 h1        1 MOL      0.169292
     87 H35         8.7530   -3.4100    1.0930 hc        1 MOL     -0.021473
     88 H36         7.8950   -4.9040    1.5260 hc        1 MOL     -0.021473
     89 H37         7.7650   -2.3520    3.1990 hc        1 MOL      0.042185
     90 H38         9.0120   -3.6050    3.3610 hc        1 MOL      0.042185
     91 H39         7.4600   -3.0330    5.4360 hn        1 MOL      0.359442
     92 H40         6.7100   -4.5860    5.8710 hn        1 MOL      0.359442
     93 N9          5.3730   -3.7190   -1.2210 n         1 MOL     -0.473940
     94 C30         4.9000   -4.4350   -2.4110 c3        1 MOL     -0.010983
     95 C31         3.4200   -4.2940   -2.7460 c         1 MOL      0.649799
     96 O16         2.9380   -5.0910   -3.5430 o         1 MOL     -0.600667
     97 C32         5.7170   -4.1440   -3.6600 c3        1 MOL      0.494119
     98 C33         5.6970   -2.6840   -4.0950 c3        1 MOL     -0.442045
     99 C34         7.1870   -4.6310   -3.5890 c3        1 MOL     -0.442045
    100 H41         5.3630   -2.7080   -1.2350 hn        1 MOL      0.244041
    101 H42         5.0430   -5.4950   -2.2340 h1        1 MOL      0.054530
    102 H43         5.2040   -4.7070   -4.4340 hc        1 MOL     -0.087526
    103 H44         4.6630   -2.3460   -4.1740 hc        1 MOL      0.093766
    104 H45         6.1720   -2.1080   -3.3050 hc        1 MOL      0.093766
    105 H46         6.0950   -2.5940   -5.1050 hc        1 MOL      0.093766
    106 H47         7.8410   -4.0630   -2.9280 hc        1 MOL      0.093766
    107 H48         7.1160   -5.6530   -3.2170 hc        1 MOL      0.093766
    108 H49         7.4620   -4.6460   -4.6380 hc        1 MOL      0.093766
    109 N10         2.6910   -3.4200   -2.0810 n         1 MOL     -0.605196
    110 C35         1.3040   -3.1980   -2.3950 c3        1 MOL      0.325614
    111 C36         0.5400   -3.0600   -1.0320 c         1 MOL      0.482665
    112 O17         1.1660   -2.7500   -0.0020 o         1 MOL     -0.475304
    113 C37         1.1420   -2.0040   -3.3270 c3        1 MOL     -0.340252
    114 C38        -0.1300   -2.0540   -4.1260 c         1 MOL      0.678144
    115 N11        -1.1240   -1.2260   -3.8740 n         1 MOL     -0.792099
    116 O18        -0.2010   -2.8690   -5.0240 o         1 MOL     -0.556112
    117 H50         3.1310   -2.7240   -1.5140 hn        1 MOL      0.331570
    118 H51         0.8870   -3.9880   -3.0070 h1        1 MOL      0.036242
    119 H52         2.0210   -1.9190   -3.9680 hc        1 MOL      0.097501
    120 H53         1.1450   -1.1430   -2.6490 hc        1 MOL      0.097501
    121 H54        -1.0380   -0.6540   -3.0430 hn        1 MOL      0.360252
    122 H55        -1.8240   -1.0550   -4.5880 hn        1 MOL      0.360252
    123 N12        -0.8060   -3.1760   -1.0660 n         1 MOL     -0.564259
    124 C39        -1.7590   -3.3410    0.0540 c3        1 MOL      0.292869
    125 C40        -3.0660   -3.9380   -0.4370 c         1 MOL      0.420308
    126 O19        -3.5230   -3.6690   -1.5020 o         1 MOL     -0.496916
    127 C41        -2.1610   -1.9740    0.6140 c3        1 MOL     -0.474456
    128 C42        -2.5720   -2.0180    2.0990 ca        1 MOL      0.106242
    129 C43        -3.8580   -1.6760    2.5590 ca        1 MOL     -0.140258
    130 C44        -1.6070   -2.5190    3.0510 ca        1 MOL     -0.140258
    131 C45        -4.1520   -1.7970    3.8850 ca        1 MOL     -0.262624
    132 C46        -2.0000   -2.7720    4.3460 ca        1 MOL     -0.262624
    133 C47        -3.2480   -2.3990    4.7760 ca        1 MOL      0.352240
    134 O20        -3.6170   -2.5690    6.1190 oh        1 MOL     -0.540492
    135 H56        -1.2510   -3.4460   -1.9300 hn        1 MOL      0.271680
    136 H57        -1.2920   -4.0140    0.7730 h1        1 MOL      0.045836
    137 H58        -3.0080   -1.5850    0.0480 hc        1 MOL      0.199536
    138 H59        -1.3570   -1.2440    0.6570 hc        1 MOL      0.199536
    139 H60        -4.6470   -1.4710    1.8400 ha        1 MOL      0.167330
    140 H61        -0.6040   -2.6920    2.6930 ha        1 MOL      0.167330
    141 H62        -5.1640   -1.5850    4.1940 ha        1 MOL      0.144752
    142 H63        -1.3030   -3.2620    4.9990 ha        1 MOL      0.144752
    143 H64        -4.4200   -2.1250    6.4020 ho        1 MOL      0.363463
    144 N13        -3.7730   -4.5950    0.4620 n         1 MOL     -0.392901
    145 C48        -5.0380   -5.2350    0.2150 c3        1 MOL      0.104932
    146 C49        -6.1680   -4.7550    1.1630 c         1 MOL      0.578703
    147 O21        -6.4590   -5.3550    2.1680 o         1 MOL     -0.556610
    148 C50        -4.8650   -6.7820    0.3910 c3        1 MOL     -0.077833
    149 C51        -3.9340   -7.2940   -0.6910 c3        1 MOL     -0.215590
    150 C52        -4.0480   -8.8030   -0.6330 c         1 MOL      0.721424
    151 O22        -4.2910   -9.4890   -1.6550 o         1 MOL     -0.699358
    152 O23        -3.9100   -9.3660    0.4770 o         1 MOL     -0.699358
    153 H65        -3.3080   -4.8390    1.3220 hn        1 MOL      0.277783
    154 H66        -5.3460   -4.9730   -0.7980 h1        1 MOL      0.104426
    155 H67        -5.8390   -7.2460    0.2760 hc        1 MOL      0.059103
    156 H68        -4.4700   -7.1080    1.3510 hc        1 MOL      0.059103
    157 H69        -2.9020   -7.0320   -0.4730 hc        1 MOL      0.032374
    158 H70        -4.2180   -6.9320   -1.6840 hc        1 MOL      0.032374
    159 N14        -6.7860   -3.5550    0.9130 n         1 MOL     -0.601639
    160 C53        -6.5460   -2.6790   -0.2200 c3        1 MOL     -0.069732
    161 C54        -6.9630   -3.2600   -1.5630 c         1 MOL      0.555152
    162 O24        -8.1150   -3.7440   -1.6620 o         1 MOL     -0.567408
    163 C55        -7.0870   -1.2640   -0.0130 c3        1 MOL     -0.138237
    164 C56        -6.4350   -0.1130   -0.8380 c3        1 MOL     -0.254091
    165 C57        -6.9520    1.2270   -0.3950 c         1 MOL      0.900163
    166 O25        -7.9740    1.7810   -0.8610 o         1 MOL     -0.811803
    167 O26        -6.2420    1.9730    0.3310 o         1 MOL     -0.811803
    168 H71        -7.5840   -3.3570    1.5020 hn        1 MOL      0.359244
    169 H72        -5.4930   -2.4040   -0.2150 h1        1 MOL     -0.029873
    170 H73        -7.1150   -1.0900    1.0650 hc        1 MOL      0.084624
    171 H74        -8.1490   -1.1840   -0.2150 hc        1 MOL      0.084624
    172 H75        -6.5890   -0.3300   -1.8970 hc        1 MOL      0.062623
    173 H76        -5.3660   -0.0820   -0.6380 hc        1 MOL      0.062623
    174 N15        -6.1610   -3.0760   -2.5760 n         1 MOL     -0.225786
    175 C58        -6.2980   -3.7030   -3.8540 c3        1 MOL     -0.217254
    176 H77        -5.8380   -4.6910   -3.8250 h1        1 MOL      0.095278
    177 H78        -7.3550   -3.8030   -4.1000 h1        1 MOL      0.095278
    178 H79        -5.8040   -3.0950   -4.6130 h1        1 MOL      0.095278
    179 H80        -5.2550   -2.7040   -2.3420 hn        1 MOL      0.280173
    180 Ca1        -7.5960    3.9950    0.8370 Ca        1 MOL      1.656742
    181 O27        -8.3180    6.7410    1.1850 oh        1 MOL     -0.807640
    182 H81        -7.9000    7.6030    1.1740 ho        1 MOL      0.377377
    183 H82        -9.2380    6.9180    0.9910 ho        1 MOL      0.377377
    184 O28       -10.1990    4.3430    0.0190 oh        1 MOL     -0.807640
    185 H83       -10.5190    5.2470    0.0950 ho        1 MOL      0.377377
    186 H84       -10.8910    3.8810   -0.4590 ho        1 MOL      0.377377
    187 O29        -7.3670    4.2580    3.4850 oh        1 MOL     -0.807640
    188 H85        -7.8310    3.6760    4.0960 ho        1 MOL      0.377377
    189 H86        -6.4470    4.0220    3.5890 ho        1 MOL      0.377377
    190 O30        -9.3400    2.4880    2.2280 oh        1 MOL     -0.807640
    191 H87        -9.6310    2.4880    3.1420 ho        1 MOL      0.377377
    192 H88        -9.9630    1.9190    1.7780 ho        1 MOL      0.377377
@<TRIPOS>BOND
     1    1    2 1   
     2    1    4 1   
     3    1    5 1   
     4    1    6 1   
     5    2    3 2   
     6    2    7 1   
     7    7    8 1   
     8    7   15 1   
     9    8    9 1   
    10    8   11 1   
    11    8   16 1   
    12    9   10 2   
    13    9   19 1   
    14   11   12 1   
    15   11   17 1   
    16   11   18 1   
    17   12   13 1   
    18   12   14 1   
    19   19   20 1   
    20   19   27 1   
    21   20   21 1   
    22   20   23 1   
    23   20   28 1   
    24   21   22 2   
    25   21   38 1   
    26   23   24 1   
    27   23   25 1   
    28   23   29 1   
    29   24   26 1   
    30   24   30 1   
    31   24   31 1   
    32   25   32 1   
    33   25   33 1   
    34   25   34 1   
    35   26   35 1   
    36   26   36 1   
    37   26   37 1   
    38   38   39 1   
    39   38   46 1   
    40   39   40 1   
    41   39   42 1   
    42   39   47 1   
    43   40   41 2   
    44   40   50 1   
    45   42   43 1   
    46   42   48 1   
    47   42   49 1   
    48   43   44 1   
    49   43   45 1   
    50   50   51 1   
    51   50   54 1   
    52   51   52 1   
    53   51   55 1   
    54   51   56 1   
    55   52   53 2   
    56   52   57 1   
    57   57   58 1   
    58   57   65 1   
    59   58   59 1   
    60   58   61 1   
    61   58   66 1   
    62   59   60 2   
    63   59   69 1   
    64   61   62 1   
    65   61   67 1   
    66   61   68 1   
    67   62   63 1   
    68   62   64 1   
    69   69   70 1   
    70   69   73 1   
    71   70   71 1   
    72   70   74 1   
    73   70   75 1   
    74   71   72 2   
    75   71   76 1   
    76   76   77 1   
    77   76   85 1   
    78   77   78 1   
    79   77   80 1   
    80   77   86 1   
    81   78   79 2   
    82   78   93 1   
    83   80   81 1   
    84   80   87 1   
    85   80   88 1   
    86   81   82 1   
    87   81   89 1   
    88   81   90 1   
    89   82   83 1   
    90   82   84 2   
    91   83   91 1   
    92   83   92 1   
    93   93   94 1   
    94   93  100 1   
    95   94   95 1   
    96   94   97 1   
    97   94  101 1   
    98   95   96 2   
    99   95  109 1   
   100   97   98 1   
   101   97   99 1   
   102   97  102 1   
   103   98  103 1   
   104   98  104 1   
   105   98  105 1   
   106   99  106 1   
   107   99  107 1   
   108   99  108 1   
   109  109  110 1   
   110  109  117 1   
   111  110  111 1   
   112  110  113 1   
   113  110  118 1   
   114  111  112 2   
   115  111  123 1   
   116  113  114 1   
   117  113  119 1   
   118  113  120 1   
   119  114  115 1   
   120  114  116 2   
   121  115  121 1   
   122  115  122 1   
   123  123  124 1   
   124  123  135 1   
   125  124  125 1   
   126  124  127 1   
   127  124  136 1   
   128  125  126 2   
   129  125  144 1   
   130  127  128 1   
   131  127  137 1   
   132  127  138 1   
   133  128  129 ar  
   134  128  130 ar  
   135  129  131 ar  
   136  129  139 1   
   137  130  132 ar  
   138  130  140 1   
   139  131  133 ar  
   140  131  141 1   
   141  132  133 ar  
   142  132  142 1   
   143  133  134 1   
   144  134  143 1   
   145  144  145 1   
   146  144  153 1   
   147  145  146 1   
   148  145  148 1   
   149  145  154 1   
   150  146  147 2   
   151  146  159 1   
   152  148  149 1   
   153  148  155 1   
   154  148  156 1   
   155  149  150 1   
   156  149  157 1   
   157  149  158 1   
   158  150  151 1   
   159  150  152 1   
   160  159  160 1   
   161  159  168 1   
   162  160  161 1   
   163  160  163 1   
   164  160  169 1   
   165  161  162 2   
   166  161  174 1   
   167  163  164 1   
   168  163  170 1   
   169  163  171 1   
   170  164  165 1   
   171  164  172 1   
   172  164  173 1   
   173  165  166 1   
   174  165  167 1   
   175  174  175 1   
   176  174  179 1   
   177  175  176 1   
   178  175  177 1   
   179  175  178 1   
   180  181  182 1   
   181  181  183 1   
   182  184  185 1   
   183  184  186 1   
   184  187  188 1   
   185  187  189 1   
   186  190  191 1   
   187  190  192 1   
@<TRIPOS>SUBSTRUCTURE
     1 MOL         1 TEMP              0 ****  ****    0 ROOT
