@<TRIPOS>MOLECULE
MOL
  182   178     1     0     0
SMALL
resp


@<TRIPOS>ATOM
      1 C1         -0.1840   -3.7610    5.9240 c3        1 MOL     -0.355041
      2 C2          0.1290   -3.7760    4.3660 c         1 MOL      0.741637
      3 O1         -0.7600   -3.9340    3.5190 o         1 MOL     -0.552905
      4 H1          0.3660   -4.5650    6.4130 hc        1 MOL      0.104391
      5 H2          0.1210   -2.8040    6.3480 hc        1 MOL      0.104391
      6 H3         -1.2530   -3.9050    6.0820 hc        1 MOL      0.104391
      7 N1          1.4090   -3.6100    4.0020 n         1 MOL     -0.590447
      8 C3          1.8020   -3.1500    2.6910 c3        1 MOL     -0.015131
      9 C4          1.9180   -4.3320    1.6700 c         1 MOL      0.805951
     10 O2          2.3990   -5.4150    1.9490 o         1 MOL     -0.582215
     11 C5          3.2350   -2.5980    2.8180 c3        1 MOL     -0.077378
     12 C6          3.5780   -1.7410    1.6150 c         1 MOL      0.723786
     13 O3          4.1390   -0.5910    1.7310 o         1 MOL     -0.735352
     14 O4          3.3120   -2.0960    0.4750 o         1 MOL     -0.735352
     15 H4          2.1230   -3.3760    4.6740 hn        1 MOL      0.338531
     16 H5          1.1360   -2.4070    2.2480 h1        1 MOL     -0.293735
     17 H6          3.9520   -3.4150    2.9340 hc        1 MOL      0.043975
     18 H7          3.2590   -1.8510    3.6100 hc        1 MOL      0.043975
     19 N2          1.5050   -4.1470    0.4120 n         1 MOL     -0.486357
     20 C7          1.6700   -5.1760   -0.6660 c3        1 MOL      0.050231
     21 C8          3.0370   -5.2370   -1.3230 c         1 MOL      0.469453
     22 O5          3.4490   -6.3150   -1.7050 o         1 MOL     -0.572646
     23 C9          0.4240   -5.1480   -1.6340 c3        1 MOL      0.038292
     24 C10        -0.9080   -5.8710   -1.2360 c3        1 MOL     -0.023303
     25 C11        -1.7660   -5.9220   -2.4240 c3        1 MOL      0.077866
     26 C12        -3.1000   -6.6020   -2.3380 c3        1 MOL      0.001775
     27 N3         -3.9930   -6.4210   -3.5050 n4        1 MOL     -0.169608
     28 H8          1.1480   -3.2450    0.1260 hn        1 MOL      0.295509
     29 H9          1.5680   -6.1430   -0.1630 h1        1 MOL      0.083743
     30 H10         0.7700   -5.5090   -2.6090 hc        1 MOL     -0.015491
     31 H11         0.1270   -4.1180   -1.8560 hc        1 MOL     -0.015491
     32 H12        -1.3560   -5.3160   -0.4010 hc        1 MOL      0.024361
     33 H13        -0.7110   -6.8920   -0.8980 hc        1 MOL      0.024361
     34 H14        -1.2590   -6.5300   -3.1850 hc        1 MOL      0.004226
     35 H15        -1.8910   -4.9260   -2.8340 hc        1 MOL      0.004226
     36 H16        -3.6590   -6.2010   -1.4920 hx        1 MOL      0.071185
     37 H17        -2.9250   -7.6740   -2.2420 hx        1 MOL      0.071185
     38 H18        -4.0490   -5.4760   -3.8390 hn        1 MOL      0.229840
     39 H19        -3.6340   -6.9430   -4.2910 hn        1 MOL      0.229840
     40 H20        -4.9130   -6.7430   -3.2310 hn        1 MOL      0.229840
     41 N4          3.7200   -4.1530   -1.5310 n         1 MOL     -0.098831
     42 C13         5.0340   -3.9840   -2.3080 c3        1 MOL     -0.041467
     43 C14         6.2720   -3.6370   -1.3730 c         1 MOL      0.470468
     44 O6          7.4200   -3.3790   -1.8020 o         1 MOL     -0.537121
     45 C15         4.8660   -2.9700   -3.3580 c3        1 MOL     -0.140320
     46 C16         4.3710   -1.5820   -2.9740 c         1 MOL      0.702927
     47 O7          4.7410   -1.0600   -1.9300 o         1 MOL     -0.736733
     48 O8          3.4510   -1.0290   -3.5920 o         1 MOL     -0.736733
     49 H21         3.3720   -3.2870   -1.1560 hn        1 MOL      0.085246
     50 H22         5.3120   -4.9350   -2.7570 h1        1 MOL      0.120813
     51 H23         4.1050   -3.4340   -3.9770 hc        1 MOL      0.048420
     52 H24         5.7720   -2.9430   -3.9810 hc        1 MOL      0.048420
     53 N5          5.9790   -3.5770   -0.0730 n         1 MOL     -0.370999
     54 C17         6.7250   -3.0090    1.0210 c3        1 MOL      0.064696
     55 C18         7.3390   -1.6070    0.9790 c         1 MOL      0.378782
     56 O9          8.1660   -1.3620    1.9010 o         1 MOL     -0.557670
     57 H25         4.9740   -3.6200    0.0770 hn        1 MOL      0.198461
     58 H26         7.4870   -3.6650    1.4270 h1        1 MOL      0.069055
     59 H27         5.9750   -2.9060    1.8090 h1        1 MOL      0.069055
     60 N6          7.0430   -0.7760   -0.0160 n         1 MOL     -0.031154
     61 C19         7.5270    0.6180   -0.0720 c3        1 MOL     -0.032477
     62 C20         6.4720    1.7180   -0.0400 c         1 MOL      0.408012
     63 O10         5.3000    1.4480   -0.2380 o         1 MOL     -0.359107
     64 C21         8.4240    0.6590   -1.3520 c3        1 MOL     -0.146442
     65 C22         7.6890    1.3840   -2.4520 c         1 MOL      0.443535
     66 N7          7.1610    0.7080   -3.3900 n         1 MOL     -0.518012
     67 O11         7.6540    2.5980   -2.6070 o         1 MOL     -0.559394
     68 H28         6.3210   -1.1180   -0.6320 hn        1 MOL      0.109274
     69 H29         8.2630    0.7060    0.7260 h1        1 MOL      0.082229
     70 H30         8.6730   -0.3540   -1.6700 hc        1 MOL      0.084018
     71 H31         9.4170    1.1020   -1.2500 hc        1 MOL      0.084018
     72 H32         7.2500   -0.3020   -3.4570 hn        1 MOL      0.300434
     73 H33         6.9730    1.1420   -4.2810 hn        1 MOL      0.300434
     74 N8          6.8920    2.9330    0.1940 n         1 MOL     -0.374592
     75 C23         6.1650    4.2720    0.1230 c3        1 MOL     -0.086728
     76 C24         4.8490    4.3320    0.9040 c         1 MOL      0.465128
     77 O12         4.8140    4.0610    2.1170 o         1 MOL     -0.481921
     78 H34         7.8940    3.0200    0.1870 hn        1 MOL      0.296386
     79 H35         6.0700    4.6290   -0.9100 h1        1 MOL      0.099269
     80 H36         6.7900    5.0130    0.6230 h1        1 MOL      0.099269
     81 N9          3.7280    4.7050    0.3520 n         1 MOL     -0.358459
     82 C25         2.4040    4.6490    0.9920 c3        1 MOL     -0.112059
     83 C26         2.1240    3.2150    1.4280 c         1 MOL      0.592151
     84 O13         2.8130    2.2210    1.0150 o         1 MOL     -0.571055
     85 C27         1.3320    5.1080   -0.0100 c3        1 MOL     -0.056294
     86 C28         1.2250    6.5690   -0.3650 ca        1 MOL      0.064813
     87 C29         1.3150    7.5750    0.6330 ca        1 MOL     -0.200652
     88 C30         1.1050    6.9690   -1.7640 ca        1 MOL     -0.200652
     89 C31         1.3810    8.9290    0.2100 ca        1 MOL     -0.244953
     90 C32         1.0530    8.3200   -2.1400 ca        1 MOL     -0.244953
     91 C33         1.1000    9.2850   -1.1190 ca        1 MOL      0.358420
     92 O14         1.1080   10.6110   -1.3010 oh        1 MOL     -0.469880
     93 H37         3.8710    5.0550   -0.5870 hn        1 MOL      0.259153
     94 H38         2.4460    5.2040    1.9320 h1        1 MOL      0.110398
     95 H39         0.3520    4.7470    0.3210 hc        1 MOL      0.043715
     96 H40         1.4550    4.4940   -0.9040 hc        1 MOL      0.043715
     97 H41         1.5730    7.3450    1.6590 ha        1 MOL      0.144270
     98 H42         1.1540    6.2320   -2.5640 ha        1 MOL      0.144270
     99 H43         1.5350    9.6430    1.0100 ha        1 MOL      0.166801
    100 H44         0.8740    8.6360   -3.1550 ha        1 MOL      0.166801
    101 H45         1.2600   11.0710   -0.4740 ho        1 MOL      0.351641
    102 N10         1.0270    3.0780    2.1790 n         1 MOL     -0.362436
    103 C34         0.4360    1.8880    2.6450 c3        1 MOL      0.077548
    104 C35         0.0930    0.7910    1.5880 c         1 MOL      0.116274
    105 O15         0.9550    0.1380    1.0190 o         1 MOL     -0.258438
    106 C36         1.1770    1.2770    3.9000 c3        1 MOL      0.173861
    107 C37         0.4910    0.0220    4.4000 c3        1 MOL     -0.126389
    108 C38         1.1840    2.3040    4.9820 c3        1 MOL     -0.167818
    109 C39        -0.8600    0.0390    5.0180 c3        1 MOL     -0.126627
    110 H46         0.5300    3.9510    2.2720 hn        1 MOL      0.249019
    111 H47        -0.5500    2.1980    2.9860 h1        1 MOL      0.068136
    112 H48         2.1820    0.9710    3.6350 hc        1 MOL      0.032656
    113 H49         1.0940   -0.4610    5.1680 hc        1 MOL      0.085259
    114 H50         0.4690   -0.7830    3.6660 hc        1 MOL      0.085259
    115 H51         1.6280    1.9360    5.9150 hc        1 MOL      0.036564
    116 H52         1.7110    3.2050    4.6730 hc        1 MOL      0.036564
    117 H53         0.1260    2.5300    5.1330 hc        1 MOL      0.036564
    118 H54        -1.0060    0.8650    5.7220 hc        1 MOL      0.030563
    119 H55        -1.6430    0.1230    4.2590 hc        1 MOL      0.030563
    120 H56        -1.1160   -0.8420    5.5960 hc        1 MOL      0.030563
    121 N11        -1.2070    0.5630    1.3620 n         1 MOL     -0.217152
    122 C40        -1.7220   -0.4990    0.4270 c3        1 MOL     -0.136726
    123 C41        -3.1890   -0.3440   -0.1670 c         1 MOL      0.712394
    124 O16        -3.5450   -1.1480   -1.0320 o         1 MOL     -0.588856
    125 C42        -1.6670   -1.8880    0.9210 c3        1 MOL      0.397350
    126 O17        -2.5420   -2.1670    2.0690 oh        1 MOL     -0.586161
    127 H57        -1.8360    1.1590    1.8710 hn        1 MOL      0.217249
    128 H58        -1.0160   -0.4550   -0.4040 h1        1 MOL      0.047171
    129 H59        -0.6100   -2.0970    1.0980 h1        1 MOL     -0.007384
    130 H60        -1.9880   -2.5750    0.1510 h1        1 MOL     -0.007384
    131 H61        -1.9150   -2.4500    2.7390 ho        1 MOL      0.342869
    132 N12        -3.8930    0.6150    0.2820 n         1 MOL     -0.709563
    133 C43        -5.3080    0.7410   -0.1930 c3        1 MOL      0.284837
    134 C44        -5.4630    1.3520   -1.6310 c         1 MOL      0.519259
    135 O18        -4.6020    2.0700   -2.1900 o         1 MOL     -0.544263
    136 C45        -6.0180    1.4450    0.9560 c3        1 MOL     -0.344971
    137 H62        -3.5970    1.1540    1.0850 hn        1 MOL      0.366345
    138 H63        -5.7000   -0.2820   -0.1620 h1        1 MOL      0.112615
    139 H64        -5.8070    0.8550    1.8430 hc        1 MOL      0.097187
    140 H65        -5.5540    2.4300    1.0550 hc        1 MOL      0.097187
    141 H66        -7.0950    1.5350    0.8540 hc        1 MOL      0.097187
    142 N13        -6.5580    1.0840   -2.3880 n         1 MOL     -0.611338
    143 C46        -7.7300    0.3100   -2.1030 c3        1 MOL      0.456899
    144 C47        -9.0270    0.9480   -2.6450 c         1 MOL      0.484905
    145 O19        -8.8900    1.6320   -3.6230 o         1 MOL     -0.542244
    146 C48        -7.4440   -1.1240   -2.5120 c3        1 MOL     -0.307329
    147 H67        -6.5640    1.6510   -3.2250 hn        1 MOL      0.328606
    148 H68        -7.9060    0.1760   -1.0290 h1        1 MOL     -0.110549
    149 H69        -8.3230   -1.7300   -2.2950 hc        1 MOL      0.074824
    150 H70        -7.3470   -1.1710   -3.5880 hc        1 MOL      0.074824
    151 H71        -6.5940   -1.4560   -1.9090 hc        1 MOL      0.074824
    152 N14       -10.2110    0.7520   -2.0530 n         1 MOL     -0.444573
    153 C49       -10.4440    0.3360   -0.6610 c3        1 MOL     -0.261449
    154 C50        -9.9130    1.4010    0.3630 c         1 MOL      0.578557
    155 O20        -9.3010    1.0240    1.3930 o         1 MOL     -0.543368
    156 C51       -11.8840   -0.0880   -0.4310 c3        1 MOL      0.060259
    157 C52       -12.1980   -0.6990    0.9060 c3        1 MOL     -0.240924
    158 C53       -13.6190   -1.3410    0.9630 c         1 MOL      0.702179
    159 O21       -13.7840   -2.4820    0.5120 o         1 MOL     -0.654419
    160 O22       -14.5920   -0.6410    1.3260 o         1 MOL     -0.654419
    161 H72       -11.0010    1.1520   -2.5220 hn        1 MOL      0.302959
    162 H73        -9.8340   -0.5530   -0.5070 h1        1 MOL      0.178739
    163 H74       -12.0280   -0.9350   -1.0890 hc        1 MOL      0.037713
    164 H75       -12.5510    0.7330   -0.6680 hc        1 MOL      0.037713
    165 H76       -12.0570    0.0050    1.7240 hc        1 MOL      0.045831
    166 H77       -11.4980   -1.4900    1.1890 hc        1 MOL      0.045831
    167 N15        -9.9920    2.6520    0.0330 n         1 MOL     -0.322300
    168 C54        -9.2740    3.7560    0.7660 c3        1 MOL     -0.168871
    169 H78        -9.5200    4.7150    0.3100 h1        1 MOL      0.100981
    170 H79        -9.5840    3.7610    1.8110 h1        1 MOL      0.100981
    171 H80        -8.1980    3.5920    0.7070 h1        1 MOL      0.100981
    172 H81       -10.2810    2.8050   -0.9140 hn        1 MOL      0.275624
    173 Ca1         3.0780    0.2470   -0.6410 Ca        1 MOL      1.827454
    174 O23         0.7870    1.5340   -1.7840 oh        1 MOL     -0.923908
    175 H82         1.0610    2.2070   -2.4030 ho        1 MOL      0.440600
    176 H83        -0.1490    1.4290   -1.9430 ho        1 MOL      0.440600
    177 O24         1.1430   -1.7920   -1.8340 oh        1 MOL     -0.923908
    178 H84         1.6530   -1.6990   -2.6460 ho        1 MOL      0.440600
    179 H85         0.2260   -1.7210   -2.1240 ho        1 MOL      0.440600
    180 O25         3.7250    1.9680   -2.5400 oh        1 MOL     -0.923908
    181 H86         4.1160    2.8380   -2.5560 ho        1 MOL      0.440600
    182 H87         3.9210    1.6000   -3.3940 ho        1 MOL      0.440600
@<TRIPOS>BOND
     1    1    2 1   
     2    1    4 1   
     3    1    5 1   
     4    1    6 1   
     5    2    3 2   
     6    2    7 1   
     7    7    8 1   
     8    7   15 1   
     9    8    9 1   
    10    8   11 1   
    11    8   16 1   
    12    9   10 2   
    13    9   19 1   
    14   11   12 1   
    15   11   17 1   
    16   11   18 1   
    17   12   13 1   
    18   12   14 1   
    19   19   20 1   
    20   19   28 1   
    21   20   21 1   
    22   20   23 1   
    23   20   29 1   
    24   21   22 2   
    25   21   41 1   
    26   23   24 1   
    27   23   30 1   
    28   23   31 1   
    29   24   25 1   
    30   24   32 1   
    31   24   33 1   
    32   25   26 1   
    33   25   34 1   
    34   25   35 1   
    35   26   27 1   
    36   26   36 1   
    37   26   37 1   
    38   27   38 1   
    39   27   39 1   
    40   27   40 1   
    41   41   42 1   
    42   41   49 1   
    43   42   43 1   
    44   42   45 1   
    45   42   50 1   
    46   43   44 2   
    47   43   53 1   
    48   45   46 1   
    49   45   51 1   
    50   45   52 1   
    51   46   47 1   
    52   46   48 1   
    53   53   54 1   
    54   53   57 1   
    55   54   55 1   
    56   54   58 1   
    57   54   59 1   
    58   55   56 2   
    59   55   60 1   
    60   60   61 1   
    61   60   68 1   
    62   61   62 1   
    63   61   64 1   
    64   61   69 1   
    65   62   63 2   
    66   62   74 1   
    67   64   65 1   
    68   64   70 1   
    69   64   71 1   
    70   65   66 1   
    71   65   67 2   
    72   66   72 1   
    73   66   73 1   
    74   74   75 1   
    75   74   78 1   
    76   75   76 1   
    77   75   79 1   
    78   75   80 1   
    79   76   77 2   
    80   76   81 1   
    81   81   82 1   
    82   81   93 1   
    83   82   83 1   
    84   82   85 1   
    85   82   94 1   
    86   83   84 2   
    87   83  102 1   
    88   85   86 1   
    89   85   95 1   
    90   85   96 1   
    91   86   87 ar  
    92   86   88 ar  
    93   87   89 ar  
    94   87   97 1   
    95   88   90 ar  
    96   88   98 1   
    97   89   91 ar  
    98   89   99 1   
    99   90   91 ar  
   100   90  100 1   
   101   91   92 1   
   102   92  101 1   
   103  102  103 1   
   104  102  110 1   
   105  103  104 1   
   106  103  106 1   
   107  103  111 1   
   108  104  105 2   
   109  104  121 1   
   110  106  107 1   
   111  106  108 1   
   112  106  112 1   
   113  107  109 1   
   114  107  113 1   
   115  107  114 1   
   116  108  115 1   
   117  108  116 1   
   118  108  117 1   
   119  109  118 1   
   120  109  119 1   
   121  109  120 1   
   122  121  122 1   
   123  121  127 1   
   124  122  123 1   
   125  122  125 1   
   126  122  128 1   
   127  123  124 2   
   128  123  132 1   
   129  125  126 1   
   130  125  129 1   
   131  125  130 1   
   132  126  131 1   
   133  132  133 1   
   134  132  137 1   
   135  133  134 1   
   136  133  136 1   
   137  133  138 1   
   138  134  135 2   
   139  134  142 1   
   140  136  139 1   
   141  136  140 1   
   142  136  141 1   
   143  142  143 1   
   144  142  147 1   
   145  143  144 1   
   146  143  146 1   
   147  143  148 1   
   148  144  145 2   
   149  144  152 1   
   150  146  149 1   
   151  146  150 1   
   152  146  151 1   
   153  152  153 1   
   154  152  161 1   
   155  153  154 1   
   156  153  156 1   
   157  153  162 1   
   158  154  155 2   
   159  154  167 1   
   160  156  157 1   
   161  156  163 1   
   162  156  164 1   
   163  157  158 1   
   164  157  165 1   
   165  157  166 1   
   166  158  159 1   
   167  158  160 1   
   168  167  168 1   
   169  167  172 1   
   170  168  169 1   
   171  168  170 1   
   172  168  171 1   
   173  174  175 1   
   174  174  176 1   
   175  177  178 1   
   176  177  179 1   
   177  180  181 1   
   178  180  182 1   
@<TRIPOS>SUBSTRUCTURE
     1 MOL         1 TEMP              0 ****  ****    0 ROOT
