@<TRIPOS>MOLECULE
MOL
  192   187     1     0     0
SMALL
resp


@<TRIPOS>ATOM
      1 C1          4.5040   -1.7640   -2.4760 c3        1 MOL     -0.268858
      2 C2          3.6040   -2.5500   -1.4900 c         1 MOL      0.667672
      3 O1          2.7030   -2.0110   -0.8300 o         1 MOL     -0.496519
      4 H1          5.3750   -1.3800   -1.9450 hc        1 MOL      0.057458
      5 H2          4.8310   -2.4260   -3.2770 hc        1 MOL      0.057458
      6 H3          3.9410   -0.9310   -2.8980 hc        1 MOL      0.057458
      7 N1          3.9060   -3.8720   -1.3560 n         1 MOL     -0.469040
      8 C3          3.2290   -4.8140   -0.3540 c3        1 MOL      0.090421
      9 C4          1.6800   -4.7040   -0.4460 c         1 MOL      0.607270
     10 O2          0.8700   -4.7280    0.5530 o         1 MOL     -0.565947
     11 C5          3.7340   -4.7270    1.0880 c3        1 MOL     -0.393707
     12 C6          5.3020   -4.6800    1.2530 c         1 MOL      0.926141
     13 O3          6.0910   -4.6960    0.3120 o         1 MOL     -0.843935
     14 O4          5.7990   -4.4830    2.3420 o         1 MOL     -0.843935
     15 H4          4.4610   -4.2880   -2.0880 hn        1 MOL      0.284204
     16 H5          3.4970   -5.8200   -0.6910 h1        1 MOL      0.064917
     17 H6          3.4020   -5.5760    1.6850 hc        1 MOL      0.136007
     18 H7          3.4250   -3.7190    1.3500 hc        1 MOL      0.136007
     19 N2          1.2520   -4.6460   -1.7000 n         1 MOL     -0.503735
     20 C7         -0.1170   -4.7570   -2.1830 c3        1 MOL     -0.063189
     21 C8         -0.7420   -6.1070   -1.7400 c         1 MOL      0.637856
     22 O5         -0.0630   -7.1560   -1.7660 o         1 MOL     -0.588211
     23 C9         -0.1750   -4.5380   -3.7050 c3        1 MOL     -0.141056
     24 C10         0.8240   -5.4970   -4.4030 c3        1 MOL      0.185386
     25 C11         0.1220   -3.1220   -4.2220 c3        1 MOL     -0.277789
     26 C12         0.3820   -5.6640   -5.8410 c3        1 MOL     -0.281921
     27 H8          2.0260   -4.5230   -2.3330 hn        1 MOL      0.171302
     28 H9         -0.7340   -3.9740   -1.7380 h1        1 MOL      0.234873
     29 H10        -1.1720   -4.8220   -4.0260 hc        1 MOL      0.124907
     30 H11         0.8260   -6.4480   -3.8620 hc        1 MOL     -0.006753
     31 H12         1.7990   -5.0280   -4.4180 hc        1 MOL     -0.006753
     32 H13         1.1860   -2.8580   -4.1560 hc        1 MOL      0.092293
     33 H14        -0.1930   -2.8220   -5.2230 hc        1 MOL      0.092293
     34 H15        -0.3700   -2.3840   -3.5830 hc        1 MOL      0.092293
     35 H16        -0.6740   -5.9400   -5.7360 hc        1 MOL      0.050956
     36 H17         0.3680   -4.7700   -6.4700 hc        1 MOL      0.050956
     37 H18         1.0670   -6.4170   -6.2150 hc        1 MOL      0.050956
     38 N3         -2.0180   -6.1890   -1.3440 n         1 MOL     -0.504517
     39 C13        -2.9030   -5.0900   -0.8570 c3        1 MOL     -0.030524
     40 C14        -3.6150   -5.5620    0.3760 c         1 MOL      0.663599
     41 O6         -4.1900   -6.6700    0.4090 o         1 MOL     -0.573037
     42 C15        -3.8990   -4.6550   -1.9790 c3        1 MOL     -0.198767
     43 C16        -4.6470   -3.3460   -1.6620 c         1 MOL      0.700092
     44 O7         -5.6980   -3.0390   -2.2530 o         1 MOL     -0.705039
     45 O8         -4.3630   -2.8130   -0.6030 o         1 MOL     -0.705039
     46 H19        -2.3170   -7.1370   -1.1750 hn        1 MOL      0.293791
     47 H20        -2.2510   -4.2730   -0.5610 h1        1 MOL     -0.010824
     48 H21        -4.6240   -5.4620   -1.9630 hc        1 MOL      0.047420
     49 H22        -3.4260   -4.6990   -2.9630 hc        1 MOL      0.047420
     50 N4         -3.4920   -4.8520    1.5270 n         1 MOL     -0.311954
     51 C17        -3.9990   -5.1800    2.8220 c3        1 MOL     -0.365187
     52 C18        -5.1210   -4.2900    3.2280 c         1 MOL      0.749185
     53 O9         -5.7500   -4.4910    4.2990 o         1 MOL     -0.629293
     54 H23        -2.9400   -4.0030    1.5850 hn        1 MOL      0.330128
     55 H24        -3.1590   -5.1520    3.5090 h1        1 MOL      0.137928
     56 H25        -4.3980   -6.1840    2.6480 h1        1 MOL      0.137928
     57 N5         -5.4320   -3.1840    2.4500 n         1 MOL     -0.605762
     58 C19        -6.4050   -2.1410    2.9510 c3        1 MOL      0.153707
     59 C20        -7.3310   -1.6710    1.8240 c         1 MOL      0.332327
     60 O10        -8.4760   -1.2320    2.1130 o         1 MOL     -0.546556
     61 C21        -5.6130   -0.8920    3.3920 c3        1 MOL     -0.136391
     62 C22        -4.4300   -0.5000    2.4650 c         1 MOL      0.767875
     63 O11        -3.3570   -1.0830    2.5780 o         1 MOL     -0.718558
     64 O12        -4.6180    0.3260    1.5460 o         1 MOL     -0.718558
     65 H26        -4.8590   -2.9810    1.6450 hn        1 MOL      0.310582
     66 H27        -7.0220   -2.4730    3.7870 h1        1 MOL      0.088909
     67 H28        -5.2980   -0.9940    4.4300 hc        1 MOL      0.012735
     68 H29        -6.2380    0.0050    3.4300 hc        1 MOL      0.012735
     69 N6         -6.9090   -1.7140    0.5030 n         1 MOL     -0.178027
     70 C23        -7.6880   -1.0770   -0.5630 c3        1 MOL     -0.329618
     71 C24        -7.8950    0.4410   -0.5470 c         1 MOL      0.571365
     72 O13        -8.7320    0.8640   -1.3350 o         1 MOL     -0.591052
     73 H30        -6.0170   -2.0480    0.1860 hn        1 MOL      0.300242
     74 H31        -8.6550   -1.5690   -0.4910 h1        1 MOL      0.135460
     75 H32        -7.1440   -1.3160   -1.4750 h1        1 MOL      0.135460
     76 N7         -7.1250    1.0380    0.3130 n         1 MOL     -0.010498
     77 C25        -7.0670    2.4750    0.4330 c3        1 MOL     -0.159804
     78 C26        -6.6490    3.2480   -0.7810 c         1 MOL      0.641993
     79 O14        -7.0430    4.4030   -0.9360 o         1 MOL     -0.579297
     80 C27        -8.3030    3.0080    1.1550 c3        1 MOL      0.042244
     81 C28        -8.3490    2.3370    2.5280 c3        1 MOL     -0.040983
     82 C29        -9.2890    3.0490    3.5260 c         1 MOL      0.580037
     83 N8        -10.5830    3.0310    3.2650 n         1 MOL     -0.748526
     84 O15        -8.8770    3.4530    4.6060 o         1 MOL     -0.577256
     85 H33        -6.5650    0.5730    1.0100 hn        1 MOL      0.043510
     86 H34        -6.2890    2.7040    1.1700 h1        1 MOL      0.134666
     87 H35        -9.2180    2.9210    0.5650 hc        1 MOL     -0.013087
     88 H36        -8.1150    4.0760    1.2590 hc        1 MOL     -0.013087
     89 H37        -7.3430    2.2460    2.9280 hc        1 MOL      0.028175
     90 H38        -8.7010    1.3070    2.4760 hc        1 MOL      0.028175
     91 H39       -10.9410    2.8210    2.3460 hn        1 MOL      0.334989
     92 H40       -11.1820    3.4440    3.9670 hn        1 MOL      0.334989
     93 N9         -5.8570    2.7130   -1.6380 n         1 MOL     -0.464465
     94 C30        -5.3340    3.4080   -2.8580 c3        1 MOL     -0.262663
     95 C31        -3.8030    3.4500   -2.8950 c         1 MOL      0.698279
     96 O16        -3.2070    4.3430   -3.4510 o         1 MOL     -0.588555
     97 C32        -5.9800    2.8010   -4.1170 c3        1 MOL      0.240592
     98 C33        -5.7270    1.3320   -4.4320 c3        1 MOL     -0.324611
     99 C34        -7.4330    2.9590   -4.1700 c3        1 MOL     -0.324611
    100 H41        -5.6340    1.7540   -1.4040 hn        1 MOL      0.274875
    101 H42        -5.6720    4.4350   -2.7630 h1        1 MOL      0.169378
    102 H43        -5.7290    3.4580   -4.9540 hc        1 MOL     -0.000634
    103 H44        -5.9910    1.1890   -5.4860 hc        1 MOL      0.079033
    104 H45        -4.6600    1.1110   -4.3850 hc        1 MOL      0.079033
    105 H46        -6.1940    0.5710   -3.8020 hc        1 MOL      0.079033
    106 H47        -7.7170    2.6070   -5.1680 hc        1 MOL      0.079033
    107 H48        -7.9600    2.3090   -3.4680 hc        1 MOL      0.079033
    108 H49        -7.6760    4.0220   -4.1490 hc        1 MOL      0.079033
    109 N10        -3.1260    2.4090   -2.3600 n         1 MOL     -0.429509
    110 C35        -1.6460    2.0360   -2.2720 c3        1 MOL      0.008413
    111 C36        -0.9110    2.7190   -1.1060 c         1 MOL      0.649101
    112 O17        -1.5850    3.2690   -0.2400 o         1 MOL     -0.540459
    113 C37        -1.6380    0.4830   -2.1570 c3        1 MOL     -0.188513
    114 C38        -0.2660   -0.0690   -2.2090 c         1 MOL      0.599064
    115 N11         0.0510   -1.0770   -1.4460 n         1 MOL     -0.690031
    116 O18         0.6040    0.3500   -2.9280 o         1 MOL     -0.587425
    117 H50        -3.7390    1.7160   -1.9440 hn        1 MOL      0.261917
    118 H51        -1.2440    2.2930   -3.2480 h1        1 MOL      0.075290
    119 H52        -2.2470   -0.0090   -2.9130 hc        1 MOL      0.099005
    120 H53        -2.1000    0.2200   -1.2160 hc        1 MOL      0.099005
    121 H54        -0.6420   -1.5170   -0.8720 hn        1 MOL      0.332975
    122 H55         1.0210   -1.3070   -1.3000 hn        1 MOL      0.332975
    123 N12         0.4120    2.7950   -1.0900 n         1 MOL     -0.559959
    124 C39         1.1660    3.2860    0.0870 c3        1 MOL     -0.047463
    125 C40         2.5500    3.6790   -0.3710 c         1 MOL      1.000402
    126 O19         2.9990    3.2740   -1.4290 o         1 MOL     -0.624759
    127 C41         1.2830    2.1430    1.1540 c3        1 MOL      0.078830
    128 C42         1.2100    2.7220    2.5970 ca        1 MOL     -0.087915
    129 C43         2.4070    3.1670    3.1570 ca        1 MOL     -0.120508
    130 C44        -0.0270    2.8120    3.2910 ca        1 MOL     -0.120508
    131 C45         2.4030    3.7260    4.4390 ca        1 MOL     -0.261102
    132 C46        -0.0550    3.4370    4.5200 ca        1 MOL     -0.261102
    133 C47         1.1290    3.9270    5.0620 ca        1 MOL      0.315020
    134 O20         0.9850    4.4800    6.2850 oh        1 MOL     -0.479964
    135 H56         0.9020    2.3510   -1.8520 hn        1 MOL      0.290186
    136 H57         0.6250    3.9980    0.7010 h1        1 MOL      0.130871
    137 H58         2.2230    1.6310    0.9650 hc        1 MOL      0.009271
    138 H59         0.4480    1.4560    1.1050 hc        1 MOL      0.009271
    139 H60         3.2880    3.1230    2.5390 ha        1 MOL      0.180047
    140 H61        -0.9610    2.4520    2.8890 ha        1 MOL      0.180047
    141 H62         3.3250    4.0230    4.9230 ha        1 MOL      0.143766
    142 H63        -0.9530    3.4920    5.1290 ha        1 MOL      0.143766
    143 H64         1.8170    4.6910    6.7170 ho        1 MOL      0.336203
    144 N13         3.1920    4.7040    0.1830 n         1 MOL     -1.124173
    145 C48         4.5040    5.2830   -0.1220 c3        1 MOL      0.794255
    146 C49         5.4980    4.7430    0.8880 c         1 MOL      0.151727
    147 O21         5.5360    5.1560    2.0480 o         1 MOL     -0.557213
    148 C50         4.4260    6.7950   -0.0620 c3        1 MOL     -0.016836
    149 C51         3.4650    7.5210   -0.9360 c3        1 MOL     -0.116607
    150 C52         3.6960    9.0570   -0.9470 c         1 MOL      0.640171
    151 O22         3.1960    9.6960    0.0130 o         1 MOL     -0.680087
    152 O23         4.3580    9.5220   -1.9230 o         1 MOL     -0.680087
    153 H65         2.7600    5.2320    0.9320 hn        1 MOL      0.386817
    154 H66         4.8010    4.9770   -1.1260 h1        1 MOL     -0.079201
    155 H67         5.3920    7.2180   -0.3180 hc        1 MOL      0.005854
    156 H68         4.1010    7.0080    0.9600 hc        1 MOL      0.005854
    157 H69         2.5000    7.3520   -0.4570 hc        1 MOL      0.003969
    158 H70         3.4640    7.1620   -1.9700 hc        1 MOL      0.003969
    159 N14         6.4670    3.9170    0.5790 n         1 MOL     -0.264326
    160 C53         6.6720    3.1800   -0.7190 c3        1 MOL     -0.176848
    161 C54         7.1780    4.0670   -1.8870 c         1 MOL      0.526752
    162 O24         7.8250    5.0980   -1.7070 o         1 MOL     -0.506640
    163 C55         7.5600    1.9340   -0.4830 c3        1 MOL      0.035662
    164 C56         6.6740    0.8250    0.1870 c3        1 MOL      0.104719
    165 C57         7.3830   -0.5610    0.3010 c         1 MOL      0.752305
    166 O25         6.6620   -1.5160    0.7020 o         1 MOL     -0.801124
    167 O26         8.6070   -0.7800    0.2450 o         1 MOL     -0.801124
    168 H71         6.9640    3.6210    1.4080 hn        1 MOL      0.295126
    169 H72         5.7040    2.8080   -1.0570 h1        1 MOL      0.074972
    170 H73         8.4030    2.2430    0.1240 hc        1 MOL     -0.017815
    171 H74         7.9720    1.5590   -1.4230 hc        1 MOL     -0.017815
    172 H75         5.7890    0.6820   -0.4390 hc        1 MOL     -0.010613
    173 H76         6.3980    1.1880    1.1720 hc        1 MOL     -0.010613
    174 N15         6.6540    3.7060   -3.1100 n         1 MOL     -0.287583
    175 C58         6.8240    4.3630   -4.4030 c3        1 MOL     -0.290489
    176 H77         7.8780    4.5880   -4.5610 h1        1 MOL      0.117924
    177 H78         6.4710    3.7030   -5.1960 h1        1 MOL      0.117924
    178 H79         6.2490    5.2900   -4.4190 h1        1 MOL      0.117924
    179 H80         6.2680    2.7760   -3.2200 hn        1 MOL      0.275373
    180 Ca1         8.1840   -3.3680    1.4830 Ca        1 MOL      1.753993
    181 O27         7.5180   -1.7290    3.6570 oh        1 MOL     -0.842533
    182 H81         7.2850   -0.8980    4.0710 ho        1 MOL      0.407736
    183 H82         7.2490   -2.3990    4.2790 ho        1 MOL      0.407736
    184 O28         8.9700   -6.0390    1.5440 oh        1 MOL     -0.842533
    185 H83         8.5310   -6.8060    1.1740 ho        1 MOL      0.407736
    186 H84         9.2100   -6.2990    2.4280 ho        1 MOL      0.407736
    187 O29        10.8350   -2.9980    1.5140 oh        1 MOL     -0.842533
    188 H85        11.0930   -2.7580    0.6300 ho        1 MOL      0.407736
    189 H86        11.6140   -2.8360    2.0450 ho        1 MOL      0.407736
    190 O30         9.2030   -4.1790    3.9310 oh        1 MOL     -0.842533
    191 H87         9.0020   -4.0950    4.8700 ho        1 MOL      0.407736
    192 H88        10.0540   -4.6310    3.9180 ho        1 MOL      0.407736
@<TRIPOS>BOND
     1    1    2 1   
     2    1    4 1   
     3    1    5 1   
     4    1    6 1   
     5    2    3 2   
     6    2    7 1   
     7    7    8 1   
     8    7   15 1   
     9    8    9 1   
    10    8   11 1   
    11    8   16 1   
    12    9   10 2   
    13    9   19 1   
    14   11   12 1   
    15   11   17 1   
    16   11   18 1   
    17   12   13 1   
    18   12   14 1   
    19   19   20 1   
    20   19   27 1   
    21   20   21 1   
    22   20   23 1   
    23   20   28 1   
    24   21   22 2   
    25   21   38 1   
    26   23   24 1   
    27   23   25 1   
    28   23   29 1   
    29   24   26 1   
    30   24   30 1   
    31   24   31 1   
    32   25   32 1   
    33   25   33 1   
    34   25   34 1   
    35   26   35 1   
    36   26   36 1   
    37   26   37 1   
    38   38   39 1   
    39   38   46 1   
    40   39   40 1   
    41   39   42 1   
    42   39   47 1   
    43   40   41 2   
    44   40   50 1   
    45   42   43 1   
    46   42   48 1   
    47   42   49 1   
    48   43   44 1   
    49   43   45 1   
    50   50   51 1   
    51   50   54 1   
    52   51   52 1   
    53   51   55 1   
    54   51   56 1   
    55   52   53 2   
    56   52   57 1   
    57   57   58 1   
    58   57   65 1   
    59   58   59 1   
    60   58   61 1   
    61   58   66 1   
    62   59   60 2   
    63   59   69 1   
    64   61   62 1   
    65   61   67 1   
    66   61   68 1   
    67   62   63 1   
    68   62   64 1   
    69   69   70 1   
    70   69   73 1   
    71   70   71 1   
    72   70   74 1   
    73   70   75 1   
    74   71   72 2   
    75   71   76 1   
    76   76   77 1   
    77   76   85 1   
    78   77   78 1   
    79   77   80 1   
    80   77   86 1   
    81   78   79 2   
    82   78   93 1   
    83   80   81 1   
    84   80   87 1   
    85   80   88 1   
    86   81   82 1   
    87   81   89 1   
    88   81   90 1   
    89   82   83 1   
    90   82   84 2   
    91   83   91 1   
    92   83   92 1   
    93   93   94 1   
    94   93  100 1   
    95   94   95 1   
    96   94   97 1   
    97   94  101 1   
    98   95   96 2   
    99   95  109 1   
   100   97   98 1   
   101   97   99 1   
   102   97  102 1   
   103   98  103 1   
   104   98  104 1   
   105   98  105 1   
   106   99  106 1   
   107   99  107 1   
   108   99  108 1   
   109  109  110 1   
   110  109  117 1   
   111  110  111 1   
   112  110  113 1   
   113  110  118 1   
   114  111  112 2   
   115  111  123 1   
   116  113  114 1   
   117  113  119 1   
   118  113  120 1   
   119  114  115 1   
   120  114  116 2   
   121  115  121 1   
   122  115  122 1   
   123  123  124 1   
   124  123  135 1   
   125  124  125 1   
   126  124  127 1   
   127  124  136 1   
   128  125  126 2   
   129  125  144 1   
   130  127  128 1   
   131  127  137 1   
   132  127  138 1   
   133  128  129 ar  
   134  128  130 ar  
   135  129  131 ar  
   136  129  139 1   
   137  130  132 ar  
   138  130  140 1   
   139  131  133 ar  
   140  131  141 1   
   141  132  133 ar  
   142  132  142 1   
   143  133  134 1   
   144  134  143 1   
   145  144  145 1   
   146  144  153 1   
   147  145  146 1   
   148  145  148 1   
   149  145  154 1   
   150  146  147 2   
   151  146  159 1   
   152  148  149 1   
   153  148  155 1   
   154  148  156 1   
   155  149  150 1   
   156  149  157 1   
   157  149  158 1   
   158  150  151 1   
   159  150  152 1   
   160  159  160 1   
   161  159  168 1   
   162  160  161 1   
   163  160  163 1   
   164  160  169 1   
   165  161  162 2   
   166  161  174 1   
   167  163  164 1   
   168  163  170 1   
   169  163  171 1   
   170  164  165 1   
   171  164  172 1   
   172  164  173 1   
   173  165  166 1   
   174  165  167 1   
   175  174  175 1   
   176  174  179 1   
   177  175  176 1   
   178  175  177 1   
   179  175  178 1   
   180  181  182 1   
   181  181  183 1   
   182  184  185 1   
   183  184  186 1   
   184  187  188 1   
   185  187  189 1   
   186  190  191 1   
   187  190  192 1   
@<TRIPOS>SUBSTRUCTURE
     1 MOL         1 TEMP              0 ****  ****    0 ROOT
