@<TRIPOS>MOLECULE
MOL
  186   183     1     0     0
SMALL
resp


@<TRIPOS>ATOM
      1 C1          4.3100    4.2740   -2.9710 c3        1 MOL     -0.347790
      2 C2          5.1410    3.4500   -1.9800 c         1 MOL      0.945061
      3 O1          4.5280    3.0650   -0.9700 o         1 MOL     -0.726207
      4 H1          3.2520    4.1670   -2.7350 hc        1 MOL      0.073597
      5 H2          4.5930    5.3240   -2.8980 hc        1 MOL      0.073597
      6 H3          4.4940    3.9170   -3.9850 hc        1 MOL      0.073597
      7 N1          6.3940    3.0570   -2.3550 n         1 MOL     -0.798871
      8 C3          7.1470    1.9440   -1.8310 c3        1 MOL      0.342657
      9 C4          6.3380    0.5980   -1.6460 c         1 MOL      0.195127
     10 O2          5.8710    0.3270   -0.4780 o         1 MOL     -0.483063
     11 C5          8.0560    2.3460   -0.6930 c3        1 MOL     -0.020227
     12 C6          7.4600    3.3320    0.3960 c         1 MOL      0.731018
     13 O3          6.6980    2.8130    1.2740 o         1 MOL     -0.731765
     14 O4          7.6900    4.5010    0.3310 o         1 MOL     -0.731765
     15 H4          6.7340    3.4660   -3.2130 hn        1 MOL      0.337132
     16 H5          7.8610    1.6700   -2.6140 h1        1 MOL      0.000956
     17 H6          9.0060    2.7140   -1.0790 hc        1 MOL     -0.024741
     18 H7          8.2830    1.3960   -0.2150 hc        1 MOL     -0.024741
     19 N2          6.0360   -0.1130   -2.7440 n         1 MOL     -0.319221
     20 C7          5.2910   -1.3800   -2.8820 c3        1 MOL      0.073994
     21 C8          5.9350   -2.5980   -2.2520 c         1 MOL      0.462674
     22 O5          6.4340   -3.4600   -2.9520 o         1 MOL     -0.573468
     23 C9          3.7620   -1.3060   -2.6940 c3        1 MOL      0.390609
     24 C10         3.1290   -2.6790   -2.9850 c3        1 MOL      0.004378
     25 C11         3.1700   -0.1200   -3.4000 c3        1 MOL     -0.103917
     26 C12         3.1580   -3.2130   -4.4580 c3        1 MOL     -0.226527
     27 H8          6.3700    0.1870   -3.6570 hn        1 MOL      0.250267
     28 H9          5.4080   -1.5790   -3.9470 h1        1 MOL      0.000370
     29 H10         3.5700   -1.1610   -1.6340 hc        1 MOL     -0.113413
     30 H11         2.0950   -2.5600   -2.6300 hc        1 MOL      0.009340
     31 H12         3.5020   -3.4490   -2.3080 hc        1 MOL      0.009340
     32 H13         3.4470   -0.2080   -4.4550 hc        1 MOL     -0.011042
     33 H14         2.0800   -0.1670   -3.3380 hc        1 MOL     -0.011042
     34 H15         3.5960    0.8080   -3.0340 hc        1 MOL     -0.011042
     35 H16         2.7610   -4.2310   -4.5170 hc        1 MOL      0.039708
     36 H17         2.5500   -2.5060   -5.0110 hc        1 MOL      0.039708
     37 H18         4.1870   -3.1870   -4.8080 hc        1 MOL      0.039708
     38 N3          6.0280   -2.5810   -0.9160 n         1 MOL     -0.309515
     39 C13         6.8850   -3.5240   -0.1520 c3        1 MOL      0.018483
     40 C14         6.2150   -4.8410    0.2690 c         1 MOL      0.583488
     41 O6          6.9420   -5.8250    0.3000 o         1 MOL     -0.555337
     42 C15         7.4810   -2.8220    1.0820 c3        1 MOL     -0.282634
     43 C16         8.1670   -1.4820    0.9610 c         1 MOL      0.735858
     44 O7          8.8320   -1.2150   -0.1090 o         1 MOL     -0.687336
     45 O8          8.3530   -0.7560    1.9640 o         1 MOL     -0.687336
     46 H19         5.6980   -1.7210   -0.5050 hn        1 MOL      0.327992
     47 H20         7.6400   -3.8370   -0.8640 h1        1 MOL      0.080374
     48 H21         8.2210   -3.4640    1.5780 hc        1 MOL      0.098449
     49 H22         6.6650   -2.5640    1.7470 hc        1 MOL      0.098449
     50 N4          4.8700   -5.0360    0.6810 n         1 MOL     -0.608155
     51 C17         3.8200   -4.0870    1.1220 c3        1 MOL      0.198954
     52 C18         4.2120   -3.5130    2.5420 c         1 MOL      0.420425
     53 O9          5.2270   -4.0080    3.1600 o         1 MOL     -0.541965
     54 H23         4.5800   -5.9950    0.7210 hn        1 MOL      0.304530
     55 H24         2.8820   -4.6350    1.2410 h1        1 MOL      0.033113
     56 H25         3.5500   -3.3010    0.4260 h1        1 MOL      0.033113
     57 N5          3.5040   -2.6060    3.2110 n         1 MOL     -0.403302
     58 C19         2.2040   -2.0270    2.7230 c3        1 MOL      0.016027
     59 C20         2.4490   -1.2930    1.3840 c         1 MOL     -0.036789
     60 O10         3.5570   -0.8780    1.0610 o         1 MOL     -0.407167
     61 C21         1.7520   -1.0150    3.7850 c3        1 MOL     -0.222522
     62 C22         2.8010   -0.0160    4.2370 c         1 MOL      0.733091
     63 O11         3.1240    0.8810    3.4310 o         1 MOL     -0.692323
     64 O12         3.3650   -0.2290    5.3370 o         1 MOL     -0.692323
     65 H26         3.9370   -2.2720    4.0700 hn        1 MOL      0.327217
     66 H27         1.5310   -2.8800    2.7040 h1        1 MOL      0.106768
     67 H28         1.4690   -1.6430    4.6230 hc        1 MOL      0.068817
     68 H29         0.7880   -0.5740    3.5360 hc        1 MOL      0.068817
     69 N6          1.4690   -0.9150    0.5490 n         1 MOL     -0.012256
     70 C23         0.0590   -1.2290    0.6530 c3        1 MOL     -0.157190
     71 C24        -0.2600   -2.6820    0.4630 c         1 MOL      0.621572
     72 O13         0.6290   -3.4980    0.1320 o         1 MOL     -0.527879
     73 H30         1.7640   -0.2230   -0.1220 hn        1 MOL      0.137073
     74 H31        -0.4430   -0.5620   -0.0530 h1        1 MOL      0.106806
     75 H32        -0.2440   -0.9550    1.6630 h1        1 MOL      0.106806
     76 N7         -1.5500   -3.0110    0.6310 n         1 MOL     -0.577415
     77 C25        -2.3160   -4.2390    0.2120 c3        1 MOL      0.217499
     78 C26        -3.1020   -4.1290   -1.0720 c         1 MOL      0.426914
     79 O14        -3.3660   -5.2450   -1.5550 o         1 MOL     -0.526522
     80 C27        -3.1390   -4.8420    1.4010 c3        1 MOL      0.010949
     81 C28        -4.1650   -3.8890    2.0310 c3        1 MOL     -0.413048
     82 C29        -5.4140   -3.7790    1.1720 c         1 MOL      0.488675
     83 N8         -6.1560   -4.8460    0.8460 n         1 MOL     -0.618329
     84 O15        -5.6200   -2.6710    0.7230 o         1 MOL     -0.523852
     85 H33        -2.1580   -2.3250    1.0680 hn        1 MOL      0.256942
     86 H34        -1.5120   -4.9590    0.0300 h1        1 MOL      0.066963
     87 H35        -2.4290   -5.1730    2.1540 hc        1 MOL      0.023174
     88 H36        -3.5210   -5.7420    0.9060 hc        1 MOL      0.023174
     89 H37        -3.7300   -2.8960    2.1440 hc        1 MOL      0.165192
     90 H38        -4.5310   -4.1800    3.0110 hc        1 MOL      0.165192
     91 H39        -5.9490   -5.7540    1.2430 hn        1 MOL      0.323403
     92 H40        -6.9950   -4.6250    0.3240 hn        1 MOL      0.323403
     93 N9         -3.5130   -2.9160   -1.5230 n         1 MOL     -0.301750
     94 C30        -4.0990   -2.6940   -2.8820 c3        1 MOL     -0.114829
     95 C31        -5.4830   -2.0130   -3.0300 c         1 MOL      0.390502
     96 O16        -6.1000   -2.0400   -4.1630 o         1 MOL     -0.556686
     97 C32        -3.0740   -2.0410   -3.7890 c3        1 MOL      0.189796
     98 C33        -1.7280   -2.8330   -3.8010 c3        1 MOL     -0.201701
     99 C34        -2.7740   -0.6170   -3.3980 c3        1 MOL     -0.201701
    100 H41        -3.4240   -2.1220   -0.9160 hn        1 MOL      0.234399
    101 H42        -4.2970   -3.7080   -3.2410 h1        1 MOL      0.125085
    102 H43        -3.4600   -2.1320   -4.8030 hc        1 MOL      0.022521
    103 H44        -1.8590   -3.9100   -3.9190 hc        1 MOL      0.046161
    104 H45        -1.0630   -2.5720   -4.6110 hc        1 MOL      0.046161
    105 H46        -1.2270   -2.7210   -2.8370 hc        1 MOL      0.046161
    106 H47        -2.3690   -0.5180   -2.3820 hc        1 MOL      0.046161
    107 H48        -2.2390   -0.1850   -4.2430 hc        1 MOL      0.046161
    108 H49        -3.7250   -0.0920   -3.3360 hc        1 MOL      0.046161
    109 N10        -6.0990   -1.5240   -1.9100 n         1 MOL     -0.127040
    110 C35        -7.3980   -0.8160   -1.9260 c3        1 MOL      0.022029
    111 C36        -7.2650    0.6160   -1.4000 c         1 MOL      0.506882
    112 O17        -8.2850    1.3270   -1.5080 o         1 MOL     -0.544361
    113 C37        -8.4660   -1.7140   -1.1270 c3        1 MOL     -0.136706
    114 C38        -8.5330   -3.1660   -1.4720 c         1 MOL      0.635289
    115 N11        -8.5780   -3.5640   -2.7310 n         1 MOL     -0.773819
    116 O18        -8.4460   -4.0360   -0.6600 o         1 MOL     -0.546126
    117 H50        -5.6310   -1.6590   -1.0330 hn        1 MOL      0.255482
    118 H51        -7.7740   -0.8220   -2.9440 h1        1 MOL      0.059059
    119 H52        -9.4290   -1.2410   -1.3020 hc        1 MOL      0.030919
    120 H53        -8.2960   -1.6120   -0.0500 hc        1 MOL      0.030919
    121 H54        -8.6310   -2.9460   -3.5300 hn        1 MOL      0.357965
    122 H55        -8.6400   -4.5200   -3.0550 hn        1 MOL      0.357965
    123 N12        -6.1220    1.0520   -0.8150 n         1 MOL     -0.593908
    124 C39        -6.0550    2.3730   -0.1450 c3        1 MOL      0.627474
    125 C40        -4.6580    2.9630   -0.0340 c         1 MOL      0.100867
    126 O19        -3.6530    2.2270   -0.1110 o         1 MOL     -0.420565
    127 C41        -6.8310    2.3080    1.2350 c3        1 MOL     -0.099327
    128 C42        -6.7910    1.0590    2.0960 ca        1 MOL      0.220181
    129 C43        -7.8930    0.1790    2.1450 ca        1 MOL     -0.348627
    130 C44        -5.5970    0.7130    2.7030 ca        1 MOL     -0.348627
    131 C45        -7.7590   -1.0710    2.8240 ca        1 MOL     -0.030182
    132 C46        -5.4460   -0.5060    3.4130 ca        1 MOL     -0.030182
    133 C47        -6.5270   -1.3660    3.4990 ca        1 MOL      0.109158
    134 O20        -6.3240   -2.5840    4.1020 oh        1 MOL     -0.436816
    135 H56        -5.3110    0.4710   -0.7540 hn        1 MOL      0.249528
    136 H57        -6.5840    3.1100   -0.7540 h1        1 MOL     -0.068872
    137 H58        -7.8800    2.5360    1.0690 hc        1 MOL      0.006449
    138 H59        -6.4310    3.1400    1.8230 hc        1 MOL      0.006449
    139 H60        -8.7900    0.3630    1.5920 ha        1 MOL      0.181593
    140 H61        -4.7490    1.3800    2.6890 ha        1 MOL      0.181593
    141 H62        -8.6170   -1.7270    2.8950 ha        1 MOL      0.102666
    142 H63        -4.4500   -0.6810    3.7970 ha        1 MOL      0.102666
    143 H64        -7.0750   -3.1750    4.1480 ho        1 MOL      0.332552
    144 N13        -4.6080    4.2110    0.3200 n         1 MOL     -0.267765
    145 C48        -3.4870    5.0260    0.9010 c3        1 MOL     -0.112903
    146 C49        -2.2530    5.2630    0.0120 c         1 MOL      0.395100
    147 O21        -1.6050    6.3230    0.0980 o         1 MOL     -0.511215
    148 C50        -3.0970    4.5030    2.2970 c3        1 MOL      0.217878
    149 C51        -4.1180    4.6410    3.4660 c3        1 MOL      0.035319
    150 C52        -3.6290    4.1410    4.7500 c         1 MOL      0.557437
    151 O22        -3.5820    4.9880    5.6900 o         1 MOL     -0.673593
    152 O23        -3.3390    2.9410    4.8310 o         1 MOL     -0.673593
    153 H65        -5.5270    4.5650    0.5260 hn        1 MOL      0.226259
    154 H66        -3.9130    6.0160    1.1040 h1        1 MOL      0.086885
    155 H67        -2.2260    5.1080    2.5350 hc        1 MOL     -0.002751
    156 H68        -2.6760    3.5000    2.3310 hc        1 MOL     -0.002751
    157 H69        -5.0960    4.2370    3.1690 hc        1 MOL     -0.063861
    158 H70        -4.3760    5.6980    3.5480 hc        1 MOL     -0.063861
    159 N14        -1.8320    4.3510   -0.9110 n         1 MOL     -0.215147
    160 C53        -0.7470    4.5740   -1.8830 c3        1 MOL     -0.036356
    161 C54        -1.2990    5.2300   -3.1680 c         1 MOL      0.513651
    162 O24        -0.5900    5.6660   -4.0390 o         1 MOL     -0.537042
    163 C55        -0.1750    3.1810   -2.2610 c3        1 MOL     -0.040508
    164 C56         0.2200    2.2240   -1.1300 c3        1 MOL      0.253583
    165 C57         1.3760    2.7720   -0.2470 c         1 MOL      0.505938
    166 O25         1.3670    4.0070    0.1040 o         1 MOL     -0.544417
    167 O26         2.1590    1.9390    0.2600 o         1 MOL     -0.544417
    168 H71        -2.2620    3.4420   -0.8610 hn        1 MOL      0.203814
    169 H72         0.1210    5.1300   -1.5350 h1        1 MOL      0.111905
    170 H73         0.6870    3.4160   -2.8760 hc        1 MOL     -0.017774
    171 H74        -0.9530    2.7330   -2.8830 hc        1 MOL     -0.017774
    172 H75         0.5470    1.2970   -1.5830 hc        1 MOL     -0.096052
    173 H76        -0.6530    2.0910   -0.4930 hc        1 MOL     -0.096052
    174 N15        -2.6140    5.5190   -3.1810 n         1 MOL     -0.235421
    175 C58        -3.2850    6.3740   -4.1570 c3        1 MOL     -0.313303
    176 H77        -4.3630    6.3240   -4.0030 h1        1 MOL      0.115396
    177 H78        -2.9480    7.4030   -4.0330 h1        1 MOL      0.115396
    178 H79        -3.0470    6.0330   -5.1640 h1        1 MOL      0.115396
    179 H80        -3.1780    5.1820   -2.4200 hn        1 MOL      0.180360
    180 Ca1         4.4640    1.6370    1.3920 Ca        1 MOL      1.714068
    181 O27         6.3370    0.3400    2.9660 oh        1 MOL     -0.926865
    182 H81         7.1340   -0.0200    2.5840 ho        1 MOL      0.417067
    183 H82         6.3280    0.0160    3.8600 ho        1 MOL      0.417067
    184 O28         3.3920    4.1320    1.8120 oh        1 MOL     -0.926865
    185 H83         3.8990    4.9320    1.6410 ho        1 MOL      0.417067
    186 H84         2.7480    4.0990    1.1080 ho        1 MOL      0.417067
@<TRIPOS>BOND
     1    1    2 1   
     2    1    4 1   
     3    1    5 1   
     4    1    6 1   
     5    2    3 2   
     6    2    7 1   
     7    7    8 1   
     8    7   15 1   
     9    8    9 1   
    10    8   11 1   
    11    8   16 1   
    12    9   10 2   
    13    9   19 1   
    14   11   12 1   
    15   11   17 1   
    16   11   18 1   
    17   12   13 1   
    18   12   14 1   
    19   19   20 1   
    20   19   27 1   
    21   20   21 1   
    22   20   23 1   
    23   20   28 1   
    24   21   22 2   
    25   21   38 1   
    26   23   24 1   
    27   23   25 1   
    28   23   29 1   
    29   24   26 1   
    30   24   30 1   
    31   24   31 1   
    32   25   32 1   
    33   25   33 1   
    34   25   34 1   
    35   26   35 1   
    36   26   36 1   
    37   26   37 1   
    38   38   39 1   
    39   38   46 1   
    40   39   40 1   
    41   39   42 1   
    42   39   47 1   
    43   40   41 2   
    44   40   50 1   
    45   42   43 1   
    46   42   48 1   
    47   42   49 1   
    48   43   44 1   
    49   43   45 1   
    50   50   51 1   
    51   50   54 1   
    52   51   52 1   
    53   51   55 1   
    54   51   56 1   
    55   52   53 2   
    56   52   57 1   
    57   57   58 1   
    58   57   65 1   
    59   58   59 1   
    60   58   61 1   
    61   58   66 1   
    62   59   60 2   
    63   59   69 1   
    64   61   62 1   
    65   61   67 1   
    66   61   68 1   
    67   62   63 1   
    68   62   64 1   
    69   69   70 1   
    70   69   73 1   
    71   70   71 1   
    72   70   74 1   
    73   70   75 1   
    74   71   72 2   
    75   71   76 1   
    76   76   77 1   
    77   76   85 1   
    78   77   78 1   
    79   77   80 1   
    80   77   86 1   
    81   78   79 2   
    82   78   93 1   
    83   80   81 1   
    84   80   87 1   
    85   80   88 1   
    86   81   82 1   
    87   81   89 1   
    88   81   90 1   
    89   82   83 1   
    90   82   84 2   
    91   83   91 1   
    92   83   92 1   
    93   93   94 1   
    94   93  100 1   
    95   94   95 1   
    96   94   97 1   
    97   94  101 1   
    98   95   96 2   
    99   95  109 1   
   100   97   98 1   
   101   97   99 1   
   102   97  102 1   
   103   98  103 1   
   104   98  104 1   
   105   98  105 1   
   106   99  106 1   
   107   99  107 1   
   108   99  108 1   
   109  109  110 1   
   110  109  117 1   
   111  110  111 1   
   112  110  113 1   
   113  110  118 1   
   114  111  112 2   
   115  111  123 1   
   116  113  114 1   
   117  113  119 1   
   118  113  120 1   
   119  114  115 1   
   120  114  116 2   
   121  115  121 1   
   122  115  122 1   
   123  123  124 1   
   124  123  135 1   
   125  124  125 1   
   126  124  127 1   
   127  124  136 1   
   128  125  126 2   
   129  125  144 1   
   130  127  128 1   
   131  127  137 1   
   132  127  138 1   
   133  128  129 ar  
   134  128  130 ar  
   135  129  131 ar  
   136  129  139 1   
   137  130  132 ar  
   138  130  140 1   
   139  131  133 ar  
   140  131  141 1   
   141  132  133 ar  
   142  132  142 1   
   143  133  134 1   
   144  134  143 1   
   145  144  145 1   
   146  144  153 1   
   147  145  146 1   
   148  145  148 1   
   149  145  154 1   
   150  146  147 2   
   151  146  159 1   
   152  148  149 1   
   153  148  155 1   
   154  148  156 1   
   155  149  150 1   
   156  149  157 1   
   157  149  158 1   
   158  150  151 1   
   159  150  152 1   
   160  159  160 1   
   161  159  168 1   
   162  160  161 1   
   163  160  163 1   
   164  160  169 1   
   165  161  162 2   
   166  161  174 1   
   167  163  164 1   
   168  163  170 1   
   169  163  171 1   
   170  164  165 1   
   171  164  172 1   
   172  164  173 1   
   173  165  166 1   
   174  165  167 1   
   175  174  175 1   
   176  174  179 1   
   177  175  176 1   
   178  175  177 1   
   179  175  178 1   
   180  181  182 1   
   181  181  183 1   
   182  184  185 1   
   183  184  186 1   
@<TRIPOS>SUBSTRUCTURE
     1 MOL         1 TEMP              0 ****  ****    0 ROOT
