@<TRIPOS>MOLECULE
MOL
  189   185     1     0     0
SMALL
resp


@<TRIPOS>ATOM
      1 C1         -6.4790   -3.9920    2.9260 c3        1 MOL     -0.246066
      2 C2         -5.2430   -3.5700    2.0360 c         1 MOL      0.689562
      3 O1         -4.2990   -2.8830    2.5420 o         1 MOL     -0.545211
      4 H1         -7.3290   -3.3520    2.6920 hc        1 MOL      0.038640
      5 H2         -6.7390   -5.0300    2.7200 hc        1 MOL      0.038640
      6 H3         -6.2220   -3.8820    3.9800 hc        1 MOL      0.038640
      7 N1         -5.1360   -4.0720    0.7850 n         1 MOL     -0.562665
      8 C3         -4.0520   -3.7340   -0.1420 c3        1 MOL      0.146813
      9 C4         -2.5480   -3.7790    0.3210 c         1 MOL      0.652805
     10 O2         -1.6960   -3.0460   -0.1700 o         1 MOL     -0.559971
     11 C5         -4.2720   -2.3850   -0.8140 c3        1 MOL     -0.795747
     12 C6         -5.7180   -2.1710   -1.1550 c         1 MOL      0.930503
     13 O3         -6.2510   -2.7600   -2.1020 o         1 MOL     -0.710376
     14 O4         -6.4490   -1.5430   -0.3340 o         1 MOL     -0.710376
     15 H4         -5.8560   -4.7010    0.4830 hn        1 MOL      0.230511
     16 H5         -4.0390   -4.5400   -0.8860 h1        1 MOL      0.097504
     17 H6         -3.6030   -2.2360   -1.6640 hc        1 MOL      0.216850
     18 H7         -3.9440   -1.5540   -0.1870 hc        1 MOL      0.216850
     19 N2         -2.1760   -4.5900    1.2970 n         1 MOL     -0.522760
     20 C7         -0.8310   -4.8550    1.8220 c3        1 MOL      0.020097
     21 C8         -0.2880   -6.0940    1.0660 c         1 MOL      0.476345
     22 O5         -0.7730   -7.2390    1.1670 o         1 MOL     -0.593842
     23 C9         -0.8050   -5.1560    3.3690 c3        1 MOL      0.130901
     24 C10        -1.8730   -4.2610    4.1550 c3        1 MOL     -0.030423
     25 C11         0.6400   -5.0630    3.9060 c3        1 MOL     -0.138104
     26 C12        -1.8950   -4.7040    5.6330 c3        1 MOL     -0.390120
     27 H8         -2.9730   -4.9220    1.8140 hn        1 MOL      0.259133
     28 H9         -0.2490   -3.9420    1.7310 h1        1 MOL      0.105263
     29 H10        -1.0840   -6.2020    3.5020 hc        1 MOL     -0.015053
     30 H11        -2.8870   -4.4490    3.8000 hc        1 MOL      0.104605
     31 H12        -1.6960   -3.1950    4.0100 hc        1 MOL      0.104605
     32 H13         0.7360   -5.4630    4.9200 hc        1 MOL      0.033154
     33 H14         1.3270   -5.6640    3.3140 hc        1 MOL      0.033154
     34 H15         0.9780   -4.0320    3.9540 hc        1 MOL      0.033154
     35 H16        -0.9210   -4.5040    6.0910 hc        1 MOL      0.087417
     36 H17        -2.5590   -4.1010    6.2430 hc        1 MOL      0.087417
     37 H18        -2.1920   -5.7540    5.6160 hc        1 MOL      0.087417
     38 N3          0.6980   -5.9780    0.1820 n         1 MOL     -0.345975
     39 C13         1.4130   -4.7830   -0.2190 c3        1 MOL      0.022585
     40 C14         1.8750   -5.0390   -1.6070 c         1 MOL      0.483898
     41 O6          2.2130   -6.2000   -1.9110 o         1 MOL     -0.550594
     42 C15         2.5640   -4.4250    0.7960 c3        1 MOL     -0.007009
     43 C16         3.3480   -3.1700    0.2960 c         1 MOL      0.726733
     44 O7          4.4300   -3.3530   -0.2070 o         1 MOL     -0.691167
     45 O8          2.7250   -2.0560    0.3580 o         1 MOL     -0.691167
     46 H19         1.0990   -6.8180   -0.1930 hn        1 MOL      0.265973
     47 H20         0.7240   -3.9340   -0.2570 h1        1 MOL      0.019282
     48 H21         3.2810   -5.2480    0.8600 hc        1 MOL     -0.020504
     49 H22         2.2250   -4.1540    1.7870 hc        1 MOL     -0.020504
     50 N4          1.9240   -4.0430   -2.4790 n         1 MOL     -0.345682
     51 C17         2.4160   -4.1470   -3.8290 c3        1 MOL      0.027809
     52 C18         3.6310   -3.2190   -4.2630 c         1 MOL      0.515178
     53 O9          3.7160   -2.9970   -5.4480 o         1 MOL     -0.570353
     54 H23         1.4750   -3.1520   -2.3130 hn        1 MOL      0.300283
     55 H24         1.5580   -4.0070   -4.4750 h1        1 MOL      0.040335
     56 H25         2.7300   -5.1580   -4.0930 h1        1 MOL      0.040335
     57 N5          4.3920   -2.6630   -3.3190 n         1 MOL     -0.326982
     58 C19         5.6250   -1.9660   -3.7740 c3        1 MOL      0.006939
     59 C20         6.8560   -2.0580   -2.8190 c         1 MOL      0.349766
     60 O10         8.0060   -1.9400   -3.2870 o         1 MOL     -0.543524
     61 C21         5.2670   -0.5170   -4.1500 c3        1 MOL     -0.061477
     62 C22         4.5410    0.2060   -3.0100 c         1 MOL      0.580313
     63 O11         5.1610    0.5890   -1.9530 o         1 MOL     -0.616375
     64 O12         3.3130    0.3550   -3.1500 o         1 MOL     -0.616375
     65 H26         4.2900   -2.9650   -2.3620 hn        1 MOL      0.198504
     66 H27         5.9340   -2.4320   -4.7030 h1        1 MOL      0.072725
     67 H28         4.5300   -0.5390   -4.9500 hc        1 MOL      0.023957
     68 H29         6.1450   -0.0230   -4.5680 hc        1 MOL      0.023957
     69 N6          6.6340   -2.2010   -1.4980 n         1 MOL     -0.131927
     70 C23         7.5450   -2.2680   -0.4200 c3        1 MOL     -0.330960
     71 C24         7.9610   -0.9420    0.2650 c         1 MOL      0.464215
     72 O13         8.7240   -0.8410    1.2310 o         1 MOL     -0.590230
     73 H30         5.6450   -2.2620   -1.2920 hn        1 MOL      0.282960
     74 H31         8.5060   -2.6650   -0.7600 h1        1 MOL      0.137616
     75 H32         7.0800   -2.7860    0.4190 h1        1 MOL      0.137616
     76 N7          7.5710    0.1810   -0.3360 n         1 MOL      0.097742
     77 C25         7.7590    1.6130    0.0350 c3        1 MOL      0.146084
     78 C26         7.4490    2.0110    1.5550 c         1 MOL      0.492474
     79 O14         8.0160    2.9320    2.1520 o         1 MOL     -0.535185
     80 C27         9.1000    2.0750   -0.4820 c3        1 MOL      0.069256
     81 C28         9.2390    1.8330   -1.9550 c3        1 MOL      0.131953
     82 C29        10.1260    2.8020   -2.7380 c         1 MOL      0.520706
     83 N8         10.6280    2.5070   -3.9340 n         1 MOL     -0.758253
     84 O15        10.3800    3.9190   -2.2580 o         1 MOL     -0.553912
     85 H33         6.9070    0.0910   -1.0890 hn        1 MOL     -0.037771
     86 H34         6.9680    2.0540   -0.5750 h1        1 MOL      0.032498
     87 H35         9.8310    1.4610    0.0510 hc        1 MOL     -0.059412
     88 H36         9.2250    3.1260   -0.2350 hc        1 MOL     -0.059412
     89 H37         8.2500    1.9790   -2.4000 hc        1 MOL     -0.035242
     90 H38         9.5560    0.8090   -2.1480 hc        1 MOL     -0.035242
     91 H39        10.4330    1.6280   -4.3750 hn        1 MOL      0.343052
     92 H40        11.3710    3.1490   -4.2010 hn        1 MOL      0.343052
     93 N9          6.4000    1.4120    2.1230 n         1 MOL     -0.410453
     94 C30         6.0040    1.5260    3.5180 c3        1 MOL      0.029127
     95 C31         4.5160    1.7910    3.7550 c         1 MOL      0.622399
     96 O16         4.1290    2.3250    4.7670 o         1 MOL     -0.602425
     97 C32         6.3540    0.1750    4.2850 c3        1 MOL      0.160765
     98 C33         5.9530   -1.1160    3.5620 c3        1 MOL     -0.203733
     99 C34         7.8840   -0.0760    4.4700 c3        1 MOL     -0.203733
    100 H41         5.8680    0.7850    1.5500 hn        1 MOL      0.191209
    101 H42         6.5210    2.3200    4.0510 h1        1 MOL      0.081425
    102 H43         5.8900    0.2870    5.2680 hc        1 MOL     -0.026143
    103 H44         6.2180   -1.9340    4.2450 hc        1 MOL      0.042182
    104 H45         4.8750   -1.1970    3.4300 hc        1 MOL      0.042182
    105 H46         6.4580   -1.2900    2.6110 hc        1 MOL      0.042182
    106 H47         8.3760   -0.3820    3.5370 hc        1 MOL      0.042182
    107 H48         8.3080    0.8480    4.8670 hc        1 MOL      0.042182
    108 H49         8.0700   -0.7710    5.2770 hc        1 MOL      0.042182
    109 N10         3.6410    1.4870    2.7880 n         1 MOL     -0.605207
    110 C35         2.1820    1.6540    2.7740 c3        1 MOL      0.492185
    111 C36         1.7380    2.3210    1.4990 c         1 MOL      0.409862
    112 O17         2.5410    2.9630    0.7810 o         1 MOL     -0.532760
    113 C37         1.6420    0.2320    2.9820 c3        1 MOL     -0.304552
    114 C38         0.3190   -0.2720    2.3130 c         1 MOL      0.659222
    115 N11         0.3520   -1.1770    1.3050 n         1 MOL     -0.902765
    116 O18        -0.7520    0.0910    2.6860 o         1 MOL     -0.580033
    117 H50         3.9390    1.0060    1.9470 hn        1 MOL      0.301466
    118 H51         1.8010    2.2670    3.5920 h1        1 MOL      0.012815
    119 H52         1.5630    0.0340    4.0520 hc        1 MOL      0.064890
    120 H53         2.3930   -0.4490    2.6010 hc        1 MOL      0.064890
    121 H54         1.2390   -1.4490    0.9150 hn        1 MOL      0.419035
    122 H55        -0.4880   -1.5670    0.8940 hn        1 MOL      0.419035
    123 N12         0.4550    2.5400    1.3620 n         1 MOL     -0.461967
    124 C39        -0.2230    3.1650    0.2620 c3        1 MOL      0.394347
    125 C40        -1.6050    3.7520    0.6090 c         1 MOL      0.463861
    126 O19        -2.1200    3.3320    1.6350 o         1 MOL     -0.557079
    127 C41        -0.3200    2.1980   -0.9030 c3        1 MOL     -0.126068
    128 C42        -1.2700    2.6060   -1.9640 ca        1 MOL      0.053276
    129 C43        -1.0020    3.7000   -2.7760 ca        1 MOL     -0.152968
    130 C44        -2.5450    1.9240   -2.1250 ca        1 MOL     -0.152968
    131 C45        -1.9230    4.1490   -3.7160 ca        1 MOL     -0.260790
    132 C46        -3.4160    2.4440   -3.0190 ca        1 MOL     -0.260790
    133 C47        -3.1730    3.6070   -3.8270 ca        1 MOL      0.300392
    134 O20        -4.1260    4.1440   -4.6470 oh        1 MOL     -0.535619
    135 H56        -0.1690    2.1490    2.0620 hn        1 MOL      0.198935
    136 H57         0.3580    4.0760    0.0940 h1        1 MOL     -0.022920
    137 H58        -0.6360    1.2070   -0.5770 hc        1 MOL      0.066312
    138 H59         0.6930    2.1740   -1.3090 hc        1 MOL      0.066312
    139 H60        -0.0420    4.2080   -2.7580 ha        1 MOL      0.131540
    140 H61        -2.8710    1.0430   -1.5790 ha        1 MOL      0.131540
    141 H62        -1.6100    4.9300   -4.3840 ha        1 MOL      0.150632
    142 H63        -4.2970    1.8320   -3.1790 ha        1 MOL      0.150632
    143 H64        -4.9530    3.6720   -4.5570 ho        1 MOL      0.402155
    144 N13        -2.1260    4.7110   -0.1210 n         1 MOL     -0.394995
    145 C48        -3.2640    5.5020    0.3780 c3        1 MOL      0.162352
    146 C49        -4.7070    5.2240   -0.2970 c         1 MOL      0.514990
    147 O21        -5.3790    6.0950   -0.8310 o         1 MOL     -0.588283
    148 C50        -2.9040    6.9260    0.2430 c3        1 MOL     -0.131615
    149 C51        -1.7150    7.3520    1.1230 c3        1 MOL     -0.005027
    150 C52        -1.4240    8.8210    0.8730 c         1 MOL      0.658103
    151 O22        -1.9670    9.6870    1.5940 o         1 MOL     -0.661444
    152 O23        -0.7010    9.0490   -0.1210 o         1 MOL     -0.661444
    153 H65        -1.5800    5.1040   -0.8740 hn        1 MOL      0.272170
    154 H66        -3.3670    5.2990    1.4520 h1        1 MOL      0.095318
    155 H67        -3.7700    7.4830    0.6110 hc        1 MOL      0.043656
    156 H68        -2.6010    7.1460   -0.7790 hc        1 MOL      0.043656
    157 H69        -0.7910    6.8110    0.9390 hc        1 MOL     -0.027878
    158 H70        -1.8360    7.2250    2.2030 hc        1 MOL     -0.027878
    159 N14        -5.2210    4.0060   -0.3970 n         1 MOL     -0.165815
    160 C53        -5.0290    2.8550    0.5210 c3        1 MOL     -0.604874
    161 C54        -5.3090    3.1840    2.0040 c         1 MOL      0.796021
    162 O24        -5.4780    4.3590    2.3040 o         1 MOL     -0.554291
    163 C55        -5.9640    1.7070    0.0390 c3        1 MOL      0.442246
    164 C56        -7.4820    2.0780    0.0370 c3        1 MOL     -0.471542
    165 C57        -8.3090    0.8930   -0.5690 c         1 MOL      0.648334
    166 O25        -8.2660    0.6890   -1.8130 o         1 MOL     -0.695946
    167 O26        -8.9200    0.1160    0.2040 o         1 MOL     -0.695946
    168 H71        -5.9810    4.0170   -1.0600 hn        1 MOL      0.186171
    169 H72        -3.9940    2.5170    0.4370 h1        1 MOL      0.140204
    170 H73        -5.8460    0.8170    0.6720 hc        1 MOL     -0.033822
    171 H74        -5.5900    1.5460   -0.9660 hc        1 MOL     -0.033822
    172 H75        -7.7070    2.9340   -0.5950 hc        1 MOL      0.116549
    173 H76        -7.7710    2.3980    1.0340 hc        1 MOL      0.116549
    174 N15        -5.3260    2.0820    2.8720 n         1 MOL     -0.394731
    175 C58        -5.4700    2.1770    4.3040 c3        1 MOL     -0.391373
    176 H77        -4.4950    2.0600    4.7750 h1        1 MOL      0.139962
    177 H78        -5.8850    3.1510    4.5650 h1        1 MOL      0.139962
    178 H79        -6.1390    1.3920    4.6550 h1        1 MOL      0.139962
    179 H80        -5.1020    1.1840    2.4660 hn        1 MOL      0.340446
    180 Ca1        -8.9040   -2.0740   -1.2580 Ca        1 MOL      1.511206
    181 O27       -10.9030   -1.0060   -2.5790 oh        1 MOL     -0.806603
    182 H81       -10.9410   -0.6140   -3.4480 ho        1 MOL      0.377079
    183 H82       -11.7860   -1.3420   -2.4250 ho        1 MOL      0.377079
    184 O28        -8.4980   -1.7910   -3.9240 oh        1 MOL     -0.806603
    185 H83        -7.6810   -1.3260   -4.0830 ho        1 MOL      0.377079
    186 H84        -8.6210   -2.3340   -4.7130 ho        1 MOL      0.377079
    187 O29        -9.6800   -4.3060   -2.3090 oh        1 MOL     -0.806603
    188 H85       -10.5160   -4.7710   -2.4130 ho        1 MOL      0.377079
    189 H86        -9.0110   -4.9470   -2.5770 ho        1 MOL      0.377079
@<TRIPOS>BOND
     1    1    2 1   
     2    1    4 1   
     3    1    5 1   
     4    1    6 1   
     5    2    3 2   
     6    2    7 1   
     7    7    8 1   
     8    7   15 1   
     9    8    9 1   
    10    8   11 1   
    11    8   16 1   
    12    9   10 2   
    13    9   19 1   
    14   11   12 1   
    15   11   17 1   
    16   11   18 1   
    17   12   13 1   
    18   12   14 1   
    19   19   20 1   
    20   19   27 1   
    21   20   21 1   
    22   20   23 1   
    23   20   28 1   
    24   21   22 2   
    25   21   38 1   
    26   23   24 1   
    27   23   25 1   
    28   23   29 1   
    29   24   26 1   
    30   24   30 1   
    31   24   31 1   
    32   25   32 1   
    33   25   33 1   
    34   25   34 1   
    35   26   35 1   
    36   26   36 1   
    37   26   37 1   
    38   38   39 1   
    39   38   46 1   
    40   39   40 1   
    41   39   42 1   
    42   39   47 1   
    43   40   41 2   
    44   40   50 1   
    45   42   43 1   
    46   42   48 1   
    47   42   49 1   
    48   43   44 1   
    49   43   45 1   
    50   50   51 1   
    51   50   54 1   
    52   51   52 1   
    53   51   55 1   
    54   51   56 1   
    55   52   53 2   
    56   52   57 1   
    57   57   58 1   
    58   57   65 1   
    59   58   59 1   
    60   58   61 1   
    61   58   66 1   
    62   59   60 2   
    63   59   69 1   
    64   61   62 1   
    65   61   67 1   
    66   61   68 1   
    67   62   63 1   
    68   62   64 1   
    69   69   70 1   
    70   69   73 1   
    71   70   71 1   
    72   70   74 1   
    73   70   75 1   
    74   71   72 2   
    75   71   76 1   
    76   76   77 1   
    77   76   85 1   
    78   77   78 1   
    79   77   80 1   
    80   77   86 1   
    81   78   79 2   
    82   78   93 1   
    83   80   81 1   
    84   80   87 1   
    85   80   88 1   
    86   81   82 1   
    87   81   89 1   
    88   81   90 1   
    89   82   83 1   
    90   82   84 2   
    91   83   91 1   
    92   83   92 1   
    93   93   94 1   
    94   93  100 1   
    95   94   95 1   
    96   94   97 1   
    97   94  101 1   
    98   95   96 2   
    99   95  109 1   
   100   97   98 1   
   101   97   99 1   
   102   97  102 1   
   103   98  103 1   
   104   98  104 1   
   105   98  105 1   
   106   99  106 1   
   107   99  107 1   
   108   99  108 1   
   109  109  110 1   
   110  109  117 1   
   111  110  111 1   
   112  110  113 1   
   113  110  118 1   
   114  111  112 2   
   115  111  123 1   
   116  113  114 1   
   117  113  119 1   
   118  113  120 1   
   119  114  115 1   
   120  114  116 2   
   121  115  121 1   
   122  115  122 1   
   123  123  124 1   
   124  123  135 1   
   125  124  125 1   
   126  124  127 1   
   127  124  136 1   
   128  125  126 2   
   129  125  144 1   
   130  127  128 1   
   131  127  137 1   
   132  127  138 1   
   133  128  129 ar  
   134  128  130 ar  
   135  129  131 ar  
   136  129  139 1   
   137  130  132 ar  
   138  130  140 1   
   139  131  133 ar  
   140  131  141 1   
   141  132  133 ar  
   142  132  142 1   
   143  133  134 1   
   144  134  143 1   
   145  144  145 1   
   146  144  153 1   
   147  145  146 1   
   148  145  148 1   
   149  145  154 1   
   150  146  147 2   
   151  146  159 1   
   152  148  149 1   
   153  148  155 1   
   154  148  156 1   
   155  149  150 1   
   156  149  157 1   
   157  149  158 1   
   158  150  151 1   
   159  150  152 1   
   160  159  160 1   
   161  159  168 1   
   162  160  161 1   
   163  160  163 1   
   164  160  169 1   
   165  161  162 2   
   166  161  174 1   
   167  163  164 1   
   168  163  170 1   
   169  163  171 1   
   170  164  165 1   
   171  164  172 1   
   172  164  173 1   
   173  165  166 1   
   174  165  167 1   
   175  174  175 1   
   176  174  179 1   
   177  175  176 1   
   178  175  177 1   
   179  175  178 1   
   180  181  182 1   
   181  181  183 1   
   182  184  185 1   
   183  184  186 1   
   184  187  188 1   
   185  187  189 1   
@<TRIPOS>SUBSTRUCTURE
     1 MOL         1 TEMP              0 ****  ****    0 ROOT
