@<TRIPOS>MOLECULE
MOL
  181   177     1     0     0
SMALL
resp


@<TRIPOS>ATOM
      1 C1          2.8080   -1.2070    4.4070 c3        1 MOL     -0.209615
      2 C2          3.4440   -0.0710    3.7200 c         1 MOL      0.617207
      3 O1          2.9070    0.4210    2.7270 o         1 MOL     -0.554729
      4 H1          3.4390   -1.5300    5.2350 hc        1 MOL      0.039330
      5 H2          1.8340   -0.9000    4.7920 hc        1 MOL      0.039330
      6 H3          2.6800   -2.0310    3.7050 hc        1 MOL      0.039330
      7 N1          4.5950    0.3870    4.1850 n         1 MOL     -0.446486
      8 C3          5.4040    1.3000    3.4930 c3        1 MOL      0.059360
      9 C4          5.9780    0.6230    2.2120 c         1 MOL      0.556275
     10 O2          6.3240    1.2920    1.2590 o         1 MOL     -0.509697
     11 C5          6.5540    1.7250    4.4570 c3        1 MOL     -0.155719
     12 C6          7.2640    2.9580    3.8570 c         1 MOL      0.746067
     13 O3          8.4750    2.9380    3.7140 o         1 MOL     -0.730127
     14 O4          6.6160    3.9890    3.6310 o         1 MOL     -0.730127
     15 H4          4.9850   -0.0440    5.0130 hn        1 MOL      0.255196
     16 H5          4.8340    2.1800    3.2110 h1        1 MOL      0.067713
     17 H6          7.2630    0.8960    4.4140 hc        1 MOL     -0.014478
     18 H7          6.1840    1.8980    5.4730 hc        1 MOL     -0.014478
     19 N2          6.0260   -0.7050    2.1520 n         1 MOL     -0.331227
     20 C7          6.2470   -1.4450    0.9180 c3        1 MOL      0.097555
     21 C8          5.2910   -1.0720   -0.2220 c         1 MOL      0.510295
     22 O5          4.1260   -1.4950   -0.2740 o         1 MOL     -0.599000
     23 C9          7.7510   -1.4950    0.5560 c3        1 MOL     -0.554680
     24 H8          5.7310   -1.2170    2.9790 hn        1 MOL      0.229948
     25 H9          5.9540   -2.4790    1.0770 h1        1 MOL      0.102643
     26 H10         7.7590   -1.9650   -0.4230 hc        1 MOL      0.143826
     27 H11         8.0900   -0.4610    0.5180 hc        1 MOL      0.143826
     28 H12         8.3190   -1.9950    1.3460 hc        1 MOL      0.143826
     29 N3          5.7220   -0.2000   -1.1390 n         1 MOL     -0.263160
     30 C10         4.9020    0.3770   -2.2630 c3        1 MOL      0.067820
     31 C11         5.0240    1.8750   -2.4340 c         1 MOL      0.435213
     32 O6          4.7960    2.3640   -3.4960 o         1 MOL     -0.470116
     33 C12         5.1190   -0.4560   -3.5580 c3        1 MOL     -0.145859
     34 C13         5.2670   -1.9610   -3.3270 c         1 MOL      0.647746
     35 O7          4.2430   -2.6100   -2.9760 o         1 MOL     -0.685928
     36 O8          6.3820   -2.4140   -3.5680 o         1 MOL     -0.685928
     37 H13         6.6390    0.1630   -0.9030 hn        1 MOL      0.191052
     38 H14         3.8770    0.1560   -1.9830 h1        1 MOL      0.080584
     39 H15         6.0540   -0.1040   -4.0060 hc        1 MOL      0.018096
     40 H16         4.3350   -0.1190   -4.2300 hc        1 MOL      0.018096
     41 N4          5.1500    2.6120   -1.3010 n         1 MOL     -0.190097
     42 C14         4.9950    4.0570   -1.4140 c3        1 MOL     -0.225530
     43 C15         3.6810    4.4700   -2.0190 c         1 MOL      0.494319
     44 O9          3.6590    5.5120   -2.7090 o         1 MOL     -0.548160
     45 H17         5.3080    2.1540   -0.4150 hn        1 MOL      0.181026
     46 H18         5.8070    4.4420   -2.0310 h1        1 MOL      0.109906
     47 H19         5.0300    4.4470   -0.3940 h1        1 MOL      0.109906
     48 N5          2.7040    3.5960   -1.9960 n         1 MOL      0.013471
     49 C16         1.3550    3.8560   -2.4400 c3        1 MOL     -0.379674
     50 C17         0.5580    4.9520   -1.6630 c         1 MOL      0.582543
     51 O10         0.7420    5.2400   -0.5010 o         1 MOL     -0.523601
     52 C18         0.5650    2.5400   -2.5100 c3        1 MOL     -0.033365
     53 C19         1.0840    1.5900   -3.5950 c         1 MOL      0.519296
     54 N6          1.5230    0.3820   -3.3000 n         1 MOL     -0.653512
     55 O11         1.2540    1.9910   -4.7500 o         1 MOL     -0.567361
     56 H20         2.7490    2.7250   -1.4890 hn        1 MOL      0.130467
     57 H21         1.4190    4.1980   -3.4730 h1        1 MOL      0.128051
     58 H22        -0.4700    2.7660   -2.7710 hc        1 MOL      0.084870
     59 H23         0.6270    2.0650   -1.5280 hc        1 MOL      0.084870
     60 H24         1.4350   -0.0020   -2.3720 hn        1 MOL      0.324418
     61 H25         1.7950   -0.2740   -4.0200 hn        1 MOL      0.324418
     62 N7         -0.4690    5.5020   -2.3650 n         1 MOL     -0.410498
     63 C20        -1.3300    6.6090   -1.9620 c3        1 MOL     -0.133890
     64 C21        -2.6980    6.1470   -1.6550 c         1 MOL      0.712287
     65 O12        -3.2890    5.3100   -2.3170 o         1 MOL     -0.551889
     66 H26        -0.7690    5.0960   -3.2420 hn        1 MOL      0.282756
     67 H27        -1.4980    7.3390   -2.7440 h1        1 MOL      0.096536
     68 H28        -0.8730    7.1420   -1.1270 h1        1 MOL      0.096536
     69 N8         -3.2690    6.7730   -0.6000 n         1 MOL     -0.588570
     70 C22        -4.6900    6.3960   -0.1970 c3        1 MOL     -0.287680
     71 C23        -4.8860    5.0290    0.4630 c         1 MOL      0.481697
     72 O13        -5.9800    4.7920    0.9820 o         1 MOL     -0.546347
     73 C24        -5.1650    7.4890    0.7460 c3        1 MOL      0.484175
     74 C25        -4.6590    7.2930    2.2020 c3        1 MOL     -0.357205
     75 O14        -4.8690    8.7630    0.2200 oh        1 MOL     -0.612905
     76 H29        -2.7540    7.5590   -0.2180 hn        1 MOL      0.283541
     77 H30        -5.2940    6.4750   -1.0980 h1        1 MOL      0.182507
     78 H31        -6.2580    7.5420    0.7150 h1        1 MOL      0.027197
     79 H32        -3.9120    8.8350    0.2360 ho        1 MOL      0.371848
     80 H33        -5.1780    6.4630    2.6900 hc        1 MOL      0.085839
     81 H34        -3.5900    7.1060    2.2070 hc        1 MOL      0.085839
     82 H35        -4.8170    8.2370    2.7200 hc        1 MOL      0.085839
     83 N9         -3.8450    4.2240    0.5350 n         1 MOL     -0.103831
     84 C26        -3.5320    2.9530    1.1870 c3        1 MOL     -0.077634
     85 C27        -2.6830    2.1200    0.2430 c         1 MOL      0.355412
     86 O15        -2.1000    2.6430   -0.6740 o         1 MOL     -0.427376
     87 C28        -2.8470    3.0450    2.6110 c3        1 MOL     -0.021701
     88 C29        -1.2980    3.2450    2.5350 c3        1 MOL     -0.029253
     89 C30        -3.5890    4.0630    3.3220 c3        1 MOL     -0.035257
     90 C31        -0.6400    3.2620    3.8840 c3        1 MOL     -0.433497
     91 H36        -3.1010    4.4430   -0.1160 hn        1 MOL      0.143050
     92 H37        -4.4000    2.3230    1.3520 h1        1 MOL      0.104170
     93 H38        -3.0280    2.1190    3.1460 hc        1 MOL      0.039324
     94 H39        -1.0140    4.1100    1.9380 hc        1 MOL      0.124044
     95 H40        -0.8620    2.3950    2.0030 hc        1 MOL      0.124044
     96 H41        -3.2700    5.0680    3.0540 hc        1 MOL      0.014854
     97 H42        -4.6520    3.8960    3.1690 hc        1 MOL      0.014854
     98 H43        -3.3730    4.0120    4.3990 hc        1 MOL      0.014854
     99 H44        -0.8180    4.2280    4.3520 hc        1 MOL      0.115417
    100 H45        -0.9720    2.3990    4.4640 hc        1 MOL      0.115417
    101 H46         0.4280    3.2370    3.6740 hc        1 MOL      0.115417
    102 N10        -2.4470    0.8870    0.5730 n         1 MOL     -0.424046
    103 C32        -1.5160   -0.0490   -0.1740 c3        1 MOL      0.283471
    104 C33        -2.2870   -1.1870   -0.9010 c         1 MOL      0.421521
    105 O16        -1.7660   -2.2910   -1.1660 o         1 MOL     -0.454517
    106 C34        -0.3780   -0.5020    0.8060 c3        1 MOL     -0.310198
    107 C35         0.7710   -1.2480    0.1830 c         1 MOL      0.972904
    108 O17         1.3700   -0.7540   -0.8330 o         1 MOL     -0.795567
    109 O18         1.1280   -2.3320    0.6190 o         1 MOL     -0.795567
    110 H47        -2.8580    0.5500    1.4260 hn        1 MOL      0.242039
    111 H48        -1.0580    0.5340   -0.9720 h1        1 MOL     -0.032458
    112 H49        -0.8750   -1.0790    1.5860 hc        1 MOL      0.071499
    113 H50        -0.0110    0.4610    1.1640 hc        1 MOL      0.071499
    114 N11        -3.6000   -0.9960   -1.1370 n         1 MOL     -0.409708
    115 C36        -4.5020   -2.0280   -1.6690 c3        1 MOL      0.229276
    116 C37        -4.6310   -3.2140   -0.7030 c         1 MOL     -0.066050
    117 O19        -4.8140   -2.9970    0.5220 o         1 MOL     -0.309983
    118 C38        -5.9100   -1.4310   -2.1110 c3        1 MOL     -0.177169
    119 C39        -6.6480   -0.6120   -1.0800 ca        1 MOL      0.073459
    120 C40        -7.4740   -1.2700   -0.1810 ca        1 MOL     -0.142848
    121 C41        -6.6610    0.7820   -1.1510 ca        1 MOL     -0.142848
    122 C42        -8.2250   -0.4570    0.7700 ca        1 MOL     -0.123426
    123 C43        -7.3020    1.5640   -0.2200 ca        1 MOL     -0.123426
    124 C44        -8.1060    0.9790    0.7310 ca        1 MOL     -0.110376
    125 H51        -4.0710   -0.1010   -1.0340 hn        1 MOL      0.266256
    126 H52        -4.0370   -2.4220   -2.5790 h1        1 MOL      0.029576
    127 H53        -6.5290   -2.2930   -2.3380 hc        1 MOL      0.073211
    128 H54        -5.7810   -0.9280   -3.0730 hc        1 MOL      0.073211
    129 H55        -7.5880   -2.3460   -0.1590 ha        1 MOL      0.127329
    130 H56        -6.1660    1.2000   -2.0110 ha        1 MOL      0.127329
    131 H57        -8.8570   -0.9560    1.4820 ha        1 MOL      0.115440
    132 H58        -7.1270    2.6300   -0.2890 ha        1 MOL      0.115440
    133 H59        -8.6120    1.5560    1.4920 ha        1 MOL      0.116340
    134 N12        -4.8000   -4.4710   -1.2200 n         1 MOL      0.080321
    135 C45        -5.1500   -5.5970   -0.4010 c3        1 MOL      0.208794
    136 C46        -4.3000   -5.7200    0.8720 c         1 MOL      0.288816
    137 O20        -4.8740   -6.0950    1.8880 o         1 MOL     -0.541733
    138 C47        -4.9620   -6.8220   -1.2970 c3        1 MOL      0.027125
    139 C48        -5.2700   -6.2790   -2.7140 c3        1 MOL     -0.069967
    140 C49        -4.8200   -4.8040   -2.6130 c3        1 MOL     -0.166819
    141 H60        -6.2000   -5.5310   -0.1210 h1        1 MOL      0.008842
    142 H61        -3.8950   -7.0190   -1.2040 hc        1 MOL     -0.002146
    143 H62        -5.5400   -7.6770   -0.9400 hc        1 MOL     -0.002146
    144 H63        -4.7150   -6.8380   -3.4710 hc        1 MOL      0.037180
    145 H64        -6.3310   -6.4190   -2.9080 hc        1 MOL      0.037180
    146 H65        -3.7930   -4.7530   -2.9770 h1        1 MOL      0.083887
    147 H66        -5.4630   -4.1950   -3.2520 h1        1 MOL      0.083887
    148 N13        -3.0360   -5.3360    1.0030 n         1 MOL     -0.130320
    149 C50        -2.2120   -5.5390    2.1940 c3        1 MOL     -0.121927
    150 C51        -2.6460   -4.5750    3.2880 c         1 MOL      0.393286
    151 O21        -2.2010   -4.7100    4.4450 o         1 MOL     -0.542859
    152 C52        -0.7620   -5.3800    1.7950 c3        1 MOL      0.037853
    153 C53        -0.2910   -6.4200    0.7150 c3        1 MOL     -0.081685
    154 C54         0.9970   -5.9610   -0.0770 c         1 MOL      0.530782
    155 O22         1.9250   -5.4250    0.5580 o         1 MOL     -0.657051
    156 O23         0.8230   -5.7610   -1.2880 o         1 MOL     -0.657051
    157 H67        -2.5600   -4.8920    0.2190 hn        1 MOL      0.232320
    158 H68        -2.3600   -6.5800    2.4620 h1        1 MOL      0.114590
    159 H69        -0.0680   -5.6260    2.6050 hc        1 MOL      0.036002
    160 H70        -0.5570   -4.3600    1.4860 hc        1 MOL      0.036002
    161 H71        -1.1560   -6.5990    0.0680 hc        1 MOL     -0.003513
    162 H72        -0.0810   -7.3100    1.2920 hc        1 MOL     -0.003513
    163 N14        -3.5710   -3.6000    3.0520 n         1 MOL     -0.010297
    164 C55        -4.0330   -2.6270    4.0220 c3        1 MOL     -0.276862
    165 H73        -4.9970   -2.2280    3.7040 h1        1 MOL      0.100305
    166 H74        -4.1410   -3.1060    4.9940 h1        1 MOL      0.100305
    167 H75        -3.3110   -1.8140    4.0940 h1        1 MOL      0.100305
    168 H76        -3.9990   -3.5750    2.1390 hn        1 MOL      0.080344
    169 Ca1         2.6390   -3.4830   -1.1260 Ca        1 MOL      1.816799
    170 O24         3.0000   -5.2680   -3.0410 oh        1 MOL     -0.910102
    171 H77         3.8600   -5.6710   -3.1670 ho        1 MOL      0.428325
    172 H78         2.4140   -5.8050   -3.5670 ho        1 MOL      0.428325
    173 O25         4.9280   -4.5920   -0.2030 oh        1 MOL     -0.910102
    174 H79         5.8110   -4.5180   -0.5690 ho        1 MOL      0.428325
    175 H80         5.0550   -4.9910    0.6560 ho        1 MOL      0.428325
    176 O26         1.0050   -2.9110   -3.1620 oh        1 MOL     -0.910102
    177 H81         0.2490   -3.4830   -3.2700 ho        1 MOL      0.428325
    178 H82         1.1340   -2.5200   -4.0330 ho        1 MOL      0.428325
    179 O27         3.1850   -3.5730    1.8850 oh        1 MOL     -0.910102
    180 H83         2.9130   -4.4190    1.5450 ho        1 MOL      0.428325
    181 H84         2.4000   -3.0340    1.8520 ho        1 MOL      0.428325
@<TRIPOS>BOND
     1    1    2 1   
     2    1    4 1   
     3    1    5 1   
     4    1    6 1   
     5    2    3 2   
     6    2    7 1   
     7    7    8 1   
     8    7   15 1   
     9    8    9 1   
    10    8   11 1   
    11    8   16 1   
    12    9   10 2   
    13    9   19 1   
    14   11   12 1   
    15   11   17 1   
    16   11   18 1   
    17   12   13 1   
    18   12   14 1   
    19   19   20 1   
    20   19   24 1   
    21   20   21 1   
    22   20   23 1   
    23   20   25 1   
    24   21   22 2   
    25   21   29 1   
    26   23   26 1   
    27   23   27 1   
    28   23   28 1   
    29   29   30 1   
    30   29   37 1   
    31   30   31 1   
    32   30   33 1   
    33   30   38 1   
    34   31   32 2   
    35   31   41 1   
    36   33   34 1   
    37   33   39 1   
    38   33   40 1   
    39   34   35 1   
    40   34   36 1   
    41   41   42 1   
    42   41   45 1   
    43   42   43 1   
    44   42   46 1   
    45   42   47 1   
    46   43   44 2   
    47   43   48 1   
    48   48   49 1   
    49   48   56 1   
    50   49   50 1   
    51   49   52 1   
    52   49   57 1   
    53   50   51 2   
    54   50   62 1   
    55   52   53 1   
    56   52   58 1   
    57   52   59 1   
    58   53   54 1   
    59   53   55 2   
    60   54   60 1   
    61   54   61 1   
    62   62   63 1   
    63   62   66 1   
    64   63   64 1   
    65   63   67 1   
    66   63   68 1   
    67   64   65 2   
    68   64   69 1   
    69   69   70 1   
    70   69   76 1   
    71   70   71 1   
    72   70   73 1   
    73   70   77 1   
    74   71   72 2   
    75   71   83 1   
    76   73   74 1   
    77   73   75 1   
    78   73   78 1   
    79   74   80 1   
    80   74   81 1   
    81   74   82 1   
    82   75   79 1   
    83   83   84 1   
    84   83   91 1   
    85   84   85 1   
    86   84   87 1   
    87   84   92 1   
    88   85   86 2   
    89   85  102 1   
    90   87   88 1   
    91   87   89 1   
    92   87   93 1   
    93   88   90 1   
    94   88   94 1   
    95   88   95 1   
    96   89   96 1   
    97   89   97 1   
    98   89   98 1   
    99   90   99 1   
   100   90  100 1   
   101   90  101 1   
   102  102  103 1   
   103  102  110 1   
   104  103  104 1   
   105  103  106 1   
   106  103  111 1   
   107  104  105 2   
   108  104  114 1   
   109  106  107 1   
   110  106  112 1   
   111  106  113 1   
   112  107  108 1   
   113  107  109 1   
   114  114  115 1   
   115  114  125 1   
   116  115  116 1   
   117  115  118 1   
   118  115  126 1   
   119  116  117 2   
   120  116  134 1   
   121  118  119 1   
   122  118  127 1   
   123  118  128 1   
   124  119  120 ar  
   125  119  121 ar  
   126  120  122 ar  
   127  120  129 1   
   128  121  123 ar  
   129  121  130 1   
   130  122  124 ar  
   131  122  131 1   
   132  123  124 ar  
   133  123  132 1   
   134  124  133 1   
   135  134  135 1   
   136  134  140 1   
   137  135  136 1   
   138  135  138 1   
   139  135  141 1   
   140  136  137 2   
   141  136  148 1   
   142  138  139 1   
   143  138  142 1   
   144  138  143 1   
   145  139  140 1   
   146  139  144 1   
   147  139  145 1   
   148  140  146 1   
   149  140  147 1   
   150  148  149 1   
   151  148  157 1   
   152  149  150 1   
   153  149  152 1   
   154  149  158 1   
   155  150  151 2   
   156  150  163 1   
   157  152  153 1   
   158  152  159 1   
   159  152  160 1   
   160  153  154 1   
   161  153  161 1   
   162  153  162 1   
   163  154  155 1   
   164  154  156 1   
   165  163  164 1   
   166  163  168 1   
   167  164  165 1   
   168  164  166 1   
   169  164  167 1   
   170  170  171 1   
   171  170  172 1   
   172  173  174 1   
   173  173  175 1   
   174  176  177 1   
   175  176  178 1   
   176  179  180 1   
   177  179  181 1   
@<TRIPOS>SUBSTRUCTURE
     1 MOL         1 TEMP              0 ****  ****    0 ROOT
