@<TRIPOS>MOLECULE
MOL
  192   187     1     0     0
SMALL
resp


@<TRIPOS>ATOM
      1 C1          2.3870    7.9200   -2.9190 c3        1 MOL     -0.398266
      2 C2          2.5490    6.3850   -2.7420 c         1 MOL      0.718539
      3 O1          2.2790    5.5920   -3.6310 o         1 MOL     -0.613011
      4 H1          1.8910    8.1250   -3.8680 hc        1 MOL      0.100881
      5 H2          1.7870    8.3190   -2.1020 hc        1 MOL      0.100881
      6 H3          3.3700    8.3920   -2.9140 hc        1 MOL      0.100881
      7 N1          3.0790    5.9380   -1.6000 n         1 MOL     -0.550238
      8 C3          3.1120    4.5110   -1.3110 c3        1 MOL      0.040015
      9 C4          1.8230    3.7900   -0.9490 c         1 MOL      0.522829
     10 O2          1.6080    2.6410   -1.2020 o         1 MOL     -0.567135
     11 C5          4.1010    4.3860   -0.1140 c3        1 MOL     -0.265894
     12 C6          3.7360    5.1060    1.1420 c         1 MOL      0.751228
     13 O3          3.6780    6.3250    1.1150 o         1 MOL     -0.741454
     14 O4          3.5250    4.4750    2.1560 o         1 MOL     -0.741454
     15 H4          3.2580    6.5660   -0.8320 hn        1 MOL      0.277092
     16 H5          3.5540    4.0110   -2.1720 h1        1 MOL      0.119177
     17 H6          5.1010    4.6680   -0.4440 hc        1 MOL      0.086215
     18 H7          4.1590    3.3030   -0.0220 hc        1 MOL      0.086215
     19 N2          0.8650    4.4970   -0.4000 n         1 MOL     -0.343986
     20 C7         -0.4620    3.9520   -0.0340 c3        1 MOL     -0.004295
     21 C8         -1.3270    3.6350   -1.3180 c         1 MOL      0.563718
     22 O5         -1.2070    4.2450   -2.3770 o         1 MOL     -0.575584
     23 C9         -1.2470    4.8770    0.9260 c3        1 MOL      0.181893
     24 C10        -0.6000    4.9680    2.3120 c3        1 MOL     -0.051460
     25 C11        -1.5160    5.8520    3.2030 c3        1 MOL     -0.046546
     26 C12        -0.7490    6.2080    4.5040 c3        1 MOL      0.098164
     27 N3         -1.6260    6.8710    5.4980 n4        1 MOL     -0.383112
     28 H8          1.0160    5.4920   -0.3240 hn        1 MOL      0.249172
     29 H9         -0.3010    3.0350    0.5280 h1        1 MOL      0.115089
     30 H10        -2.2830    4.5450    0.9310 hc        1 MOL     -0.029683
     31 H11        -1.3290    5.8690    0.4850 hc        1 MOL     -0.029683
     32 H12         0.4310    5.3090    2.2200 hc        1 MOL      0.045341
     33 H13        -0.4890    3.9850    2.7600 hc        1 MOL      0.045341
     34 H14        -2.4610    5.3670    3.4410 hc        1 MOL      0.021006
     35 H15        -1.6800    6.7590    2.6130 hc        1 MOL      0.021006
     36 H16         0.0360    6.9120    4.2160 hx        1 MOL      0.071427
     37 H17        -0.3330    5.2780    4.8930 hx        1 MOL      0.071427
     38 H18        -2.3120    6.1700    5.7270 hn        1 MOL      0.331575
     39 H19        -1.1290    7.1680    6.3130 hn        1 MOL      0.331575
     40 H20        -2.1270    7.6200    5.0350 hn        1 MOL      0.331575
     41 N4         -2.1620    2.6430   -1.3840 n         1 MOL     -0.514492
     42 C13        -2.4510    1.4920   -0.4800 c3        1 MOL     -0.012454
     43 C14        -2.8430    1.9260    0.9190 c         1 MOL      0.426919
     44 O6         -1.9870    1.9310    1.8250 o         1 MOL     -0.577426
     45 C15        -1.4290    0.3530   -0.5950 c3        1 MOL      0.005170
     46 C16        -1.1110   -0.1160   -2.0120 c         1 MOL      0.812274
     47 O7         -0.4210   -1.0970   -2.2000 o         1 MOL     -0.832933
     48 O8         -1.5370    0.5530   -3.0420 o         1 MOL     -0.832933
     49 H21        -2.6080    2.5280   -2.2820 hn        1 MOL      0.333108
     50 H22        -3.3210    0.9890   -0.9110 h1        1 MOL      0.078176
     51 H23        -1.7870   -0.4960   -0.0140 hc        1 MOL      0.032477
     52 H24        -0.5150    0.5310   -0.0350 hc        1 MOL      0.032477
     53 N5         -4.0880    2.3400    1.2080 n         1 MOL     -0.165590
     54 C17        -5.2680    2.4280    0.3410 c3        1 MOL     -0.277695
     55 C18        -6.4340    2.9300    1.2350 c         1 MOL      0.700750
     56 O9         -6.2250    3.6100    2.1830 o         1 MOL     -0.579182
     57 H25        -4.2420    2.5960    2.1690 hn        1 MOL      0.226775
     58 H26        -5.6060    1.4190    0.0930 h1        1 MOL      0.104344
     59 H27        -5.1640    3.1580   -0.4580 h1        1 MOL      0.104344
     60 N6         -7.7170    2.6440    0.9380 n         1 MOL     -0.528385
     61 C19        -8.2340    1.8370   -0.1980 c3        1 MOL      0.075954
     62 C20        -8.3160    0.3800    0.1370 c         1 MOL      0.493048
     63 O10        -8.2790   -0.0090    1.3300 o         1 MOL     -0.456021
     64 C21        -9.6210    2.3230   -0.5400 c3        1 MOL     -0.165918
     65 C22       -10.6000    2.5050    0.6500 c         1 MOL      0.743722
     66 O11       -10.5370    3.4830    1.4490 o         1 MOL     -0.649603
     67 O12       -11.5640    1.7660    0.7710 o         1 MOL     -0.649603
     68 H28        -8.3310    2.9640    1.6710 hn        1 MOL      0.283785
     69 H29        -7.6580    2.0700   -1.0940 h1        1 MOL      0.044730
     70 H30       -10.0220    1.6190   -1.2760 hc        1 MOL      0.021382
     71 H31        -9.6000    3.2730   -1.0690 hc        1 MOL      0.021382
     72 N7         -8.3370   -0.4980   -0.8700 n         1 MOL     -0.347095
     73 C23        -8.8740   -1.8190   -0.6200 c3        1 MOL     -0.174325
     74 C24        -7.9360   -2.8920   -0.1840 c         1 MOL      0.537039
     75 O13        -8.3450   -3.7380    0.6080 o         1 MOL     -0.534962
     76 H32        -8.1900   -0.1810   -1.8220 hn        1 MOL      0.257917
     77 H33        -9.2680   -2.1480   -1.5750 h1        1 MOL      0.123494
     78 H34        -9.7250   -1.8040    0.0640 h1        1 MOL      0.123494
     79 N8         -6.6950   -2.8470   -0.6650 n         1 MOL     -0.431077
     80 C25        -5.6660   -3.8480   -0.2330 c3        1 MOL     -0.033673
     81 C26        -4.3490   -3.2300    0.2970 c         1 MOL      0.764409
     82 O14        -3.9910   -2.0840   -0.0920 o         1 MOL     -0.571170
     83 C27        -5.3860   -4.7870   -1.4000 c3        1 MOL      0.321371
     84 C28        -4.4870   -5.9890   -1.0120 c3        1 MOL     -0.468208
     85 O15        -4.6790   -4.0860   -2.3310 oh        1 MOL     -0.606440
     86 H35        -6.3530   -2.0060   -1.1040 hn        1 MOL      0.230419
     87 H36        -6.0980   -4.5000    0.5200 h1        1 MOL      0.087390
     88 H37        -6.2900   -5.0340   -1.9520 h1        1 MOL      0.015816
     89 H38        -4.9810   -4.4050   -3.1870 ho        1 MOL      0.400414
     90 H39        -5.0060   -6.5940   -0.2670 hc        1 MOL      0.125055
     91 H40        -4.2860   -6.4720   -1.9650 hc        1 MOL      0.125055
     92 H41        -3.5260   -5.5820   -0.7070 hc        1 MOL      0.125055
     93 N9         -3.5420   -3.9110    1.1370 n         1 MOL     -0.651352
     94 C29        -2.2140   -3.5210    1.5640 c3        1 MOL     -0.023085
     95 C30        -1.1560   -4.6000    1.5060 c         1 MOL      0.571707
     96 O16        -1.4200   -5.7230    1.9100 o         1 MOL     -0.514441
     97 C31        -2.2610   -2.9340    3.0450 c3        1 MOL      0.026376
     98 C32        -3.3300   -1.7840    3.2480 c3        1 MOL      0.306129
     99 C33        -0.8060   -2.5300    3.5710 c3        1 MOL     -0.207476
    100 C34        -3.4170   -1.3770    4.7300 c3        1 MOL     -0.301650
    101 H42        -3.8330   -4.8610    1.3580 hn        1 MOL      0.322541
    102 H43        -1.8450   -2.7060    0.9530 h1        1 MOL      0.091242
    103 H44        -2.5300   -3.7570    3.7130 hc        1 MOL      0.040905
    104 H45        -4.2960   -2.1340    2.9170 hc        1 MOL     -0.044961
    105 H46        -3.1270   -0.8640    2.6840 hc        1 MOL     -0.044961
    106 H47        -0.3840   -1.7170    2.9830 hc        1 MOL      0.037599
    107 H48        -0.8030   -2.1900    4.6010 hc        1 MOL      0.037599
    108 H49        -0.1570   -3.3980    3.4720 hc        1 MOL      0.037599
    109 H50        -4.4430   -1.0500    4.8880 hc        1 MOL      0.066858
    110 H51        -3.2560   -2.2630    5.3490 hc        1 MOL      0.066858
    111 H52        -2.8020   -0.5070    4.9530 hc        1 MOL      0.066858
    112 N10         0.0490   -4.2660    0.8960 n         1 MOL     -0.364938
    113 C35         1.0360   -5.2870    0.5770 c3        1 MOL     -0.151284
    114 C36         2.4400   -5.0920    1.2340 c         1 MOL      0.454402
    115 O17         3.2060   -6.0150    1.1450 o         1 MOL     -0.489872
    116 C37         1.2840   -5.4060   -0.9490 c3        1 MOL      0.383246
    117 C38         1.8220   -4.0750   -1.6200 c3        1 MOL     -0.437000
    118 O18         0.0900   -5.7420   -1.5420 oh        1 MOL     -0.676759
    119 H53         0.1960   -3.2870    0.6700 hn        1 MOL      0.232911
    120 H54         0.6590   -6.2740    0.8450 h1        1 MOL      0.136293
    121 H55         2.0330   -6.1800   -1.0890 h1        1 MOL      0.080988
    122 H56        -0.6170   -5.1350   -1.3140 ho        1 MOL      0.422092
    123 H57         2.0600   -4.1200   -2.6810 hc        1 MOL      0.141162
    124 H58         1.1840   -3.2130   -1.3820 hc        1 MOL      0.141162
    125 H59         2.7700   -3.8660   -1.1240 hc        1 MOL      0.141162
    126 N11         2.6610   -3.8880    1.8580 n         1 MOL     -0.307193
    127 C39         3.9340   -3.4700    2.4130 c3        1 MOL     -0.247263
    128 C40         5.1260   -3.4000    1.4070 c         1 MOL      0.454016
    129 O19         5.1180   -4.1060    0.4100 o         1 MOL     -0.417552
    130 C41         4.2080   -4.2570    3.6780 c3        1 MOL      0.555126
    131 C42         3.1210   -4.4330    4.7610 c3        1 MOL     -0.396949
    132 O20         5.2230   -3.6570    4.4640 oh        1 MOL     -0.718768
    133 H60         1.8130   -3.3370    1.9840 hn        1 MOL      0.262263
    134 H61         3.7860   -2.4330    2.7080 h1        1 MOL      0.083989
    135 H62         4.4460   -5.2940    3.4700 h1        1 MOL      0.056335
    136 H63         4.8900   -2.8680    4.8920 ho        1 MOL      0.403751
    137 H64         3.1960   -3.5660    5.4290 hc        1 MOL      0.093204
    138 H65         2.1480   -4.4180    4.2660 hc        1 MOL      0.093204
    139 H66         3.4250   -5.3440    5.2740 hc        1 MOL      0.093204
    140 N12         6.2170   -2.6130    1.5470 n         1 MOL     -0.305862
    141 C43         7.3610   -2.3870    0.6870 c3        1 MOL     -0.120362
    142 C44         7.0660   -1.5330   -0.5190 c         1 MOL      0.529917
    143 O21         7.9960   -1.5340   -1.4110 o         1 MOL     -0.552686
    144 C45         8.5120   -1.7470    1.4720 c3        1 MOL     -0.171408
    145 C46         8.1730   -0.3380    1.9870 c3        1 MOL     -0.028630
    146 C47         8.9870   -0.0760    3.2560 c3        1 MOL      0.048980
    147 C48         8.8860    1.4770    3.5420 c3        1 MOL      0.042334
    148 N13         9.3690    1.7760    4.8940 n4        1 MOL     -0.187534
    149 H67         6.1410   -1.8950    2.2410 hn        1 MOL      0.210495
    150 H68         7.7290   -3.3560    0.3320 h1        1 MOL      0.164883
    151 H69         9.4480   -1.6330    0.9120 hc        1 MOL      0.096130
    152 H70         8.7360   -2.4540    2.2670 hc        1 MOL      0.096130
    153 H71         7.1070   -0.3270    2.2330 hc        1 MOL      0.054327
    154 H72         8.4510    0.4430    1.2790 hc        1 MOL      0.054327
    155 H73        10.0460   -0.3380    3.1950 hc        1 MOL     -0.015026
    156 H74         8.5560   -0.5520    4.1420 hc        1 MOL     -0.015026
    157 H75         7.8150    1.6760    3.5540 hx        1 MOL      0.077049
    158 H76         9.4330    1.9530    2.7220 hx        1 MOL      0.077049
    159 H77         8.7610    1.3430    5.5800 hn        1 MOL      0.240108
    160 H78        10.2890    1.3970    5.0670 hn        1 MOL      0.240108
    161 H79         9.4110    2.7780    5.0130 hn        1 MOL      0.240108
    162 N14         5.8530   -0.9560   -0.7180 n         1 MOL     -0.179861
    163 C49         5.6850   -0.0200   -1.8680 c3        1 MOL     -0.634184
    164 C50         6.5000    1.3170   -1.8590 c         1 MOL      0.586200
    165 O22         6.4240    2.1220   -0.8830 o         1 MOL     -0.576552
    166 C51         4.2070    0.3020   -1.9470 c3        1 MOL      0.447027
    167 C52         3.3450   -0.9380   -2.1870 c3        1 MOL     -0.546158
    168 C53         3.5060   -1.5870   -3.5180 c         1 MOL      0.713465
    169 O23         2.5650   -1.4890   -4.3590 o         1 MOL     -0.721710
    170 O24         4.5300   -2.2290   -3.8920 o         1 MOL     -0.721710
    171 H80         5.2880   -0.7670    0.1010 hn        1 MOL      0.233723
    172 H81         5.7780   -0.5020   -2.8350 h1        1 MOL      0.360127
    173 H82         4.0840    0.9890   -2.7850 hc        1 MOL     -0.068719
    174 H83         3.8660    0.7610   -1.0220 hc        1 MOL     -0.068719
    175 H84         2.3250   -0.6170   -1.9880 hc        1 MOL      0.123623
    176 H85         3.5270   -1.5900   -1.3290 hc        1 MOL      0.123623
    177 N15         7.2100    1.5320   -2.9810 n         1 MOL     -0.207352
    178 C54         8.2790    2.5370   -3.2490 c3        1 MOL     -0.289668
    179 H86         7.8230    3.4770   -3.5600 h1        1 MOL      0.126398
    180 H87         8.8610    2.7000   -2.3420 h1        1 MOL      0.126398
    181 H88         8.9310    2.1720   -4.0410 h1        1 MOL      0.126398
    182 H89         7.1280    0.8540   -3.7310 hn        1 MOL      0.227431
    183 Ca1         0.0920   -0.6950   -4.7260 Ca        1 MOL      1.750679
    184 O25        -0.2190   -3.3110   -4.5900 oh        1 MOL     -0.864546
    185 H90        -0.6150   -3.8250   -3.8760 ho        1 MOL      0.428912
    186 H91         0.2800   -3.9480   -5.0920 ho        1 MOL      0.428912
    187 O26        -2.5420   -1.3260   -5.8850 oh        1 MOL     -0.864546
    188 H92        -3.0430   -2.1010   -6.1500 ho        1 MOL      0.428912
    189 H93        -3.2140   -0.6530   -5.7580 ho        1 MOL      0.428912
    190 O27         1.4520    1.3670   -3.5920 oh        1 MOL     -0.864546
    191 H94         1.5480    1.6430   -2.6770 ho        1 MOL      0.428912
    192 H95         1.1300    2.1330   -4.0450 ho        1 MOL      0.428912
@<TRIPOS>BOND
     1    1    2 1   
     2    1    4 1   
     3    1    5 1   
     4    1    6 1   
     5    2    3 2   
     6    2    7 1   
     7    7    8 1   
     8    7   15 1   
     9    8    9 1   
    10    8   11 1   
    11    8   16 1   
    12    9   10 2   
    13    9   19 1   
    14   11   12 1   
    15   11   17 1   
    16   11   18 1   
    17   12   13 1   
    18   12   14 1   
    19   19   20 1   
    20   19   28 1   
    21   20   21 1   
    22   20   23 1   
    23   20   29 1   
    24   21   22 2   
    25   21   41 1   
    26   23   24 1   
    27   23   30 1   
    28   23   31 1   
    29   24   25 1   
    30   24   32 1   
    31   24   33 1   
    32   25   26 1   
    33   25   34 1   
    34   25   35 1   
    35   26   27 1   
    36   26   36 1   
    37   26   37 1   
    38   27   38 1   
    39   27   39 1   
    40   27   40 1   
    41   41   42 1   
    42   41   49 1   
    43   42   43 1   
    44   42   45 1   
    45   42   50 1   
    46   43   44 2   
    47   43   53 1   
    48   45   46 1   
    49   45   51 1   
    50   45   52 1   
    51   46   47 1   
    52   46   48 1   
    53   53   54 1   
    54   53   57 1   
    55   54   55 1   
    56   54   58 1   
    57   54   59 1   
    58   55   56 2   
    59   55   60 1   
    60   60   61 1   
    61   60   68 1   
    62   61   62 1   
    63   61   64 1   
    64   61   69 1   
    65   62   63 2   
    66   62   72 1   
    67   64   65 1   
    68   64   70 1   
    69   64   71 1   
    70   65   66 1   
    71   65   67 1   
    72   72   73 1   
    73   72   76 1   
    74   73   74 1   
    75   73   77 1   
    76   73   78 1   
    77   74   75 2   
    78   74   79 1   
    79   79   80 1   
    80   79   86 1   
    81   80   81 1   
    82   80   83 1   
    83   80   87 1   
    84   81   82 2   
    85   81   93 1   
    86   83   84 1   
    87   83   85 1   
    88   83   88 1   
    89   84   90 1   
    90   84   91 1   
    91   84   92 1   
    92   85   89 1   
    93   93   94 1   
    94   93  101 1   
    95   94   95 1   
    96   94   97 1   
    97   94  102 1   
    98   95   96 2   
    99   95  112 1   
   100   97   98 1   
   101   97   99 1   
   102   97  103 1   
   103   98  100 1   
   104   98  104 1   
   105   98  105 1   
   106   99  106 1   
   107   99  107 1   
   108   99  108 1   
   109  100  109 1   
   110  100  110 1   
   111  100  111 1   
   112  112  113 1   
   113  112  119 1   
   114  113  114 1   
   115  113  116 1   
   116  113  120 1   
   117  114  115 2   
   118  114  126 1   
   119  116  117 1   
   120  116  118 1   
   121  116  121 1   
   122  117  123 1   
   123  117  124 1   
   124  117  125 1   
   125  118  122 1   
   126  126  127 1   
   127  126  133 1   
   128  127  128 1   
   129  127  130 1   
   130  127  134 1   
   131  128  129 2   
   132  128  140 1   
   133  130  131 1   
   134  130  132 1   
   135  130  135 1   
   136  131  137 1   
   137  131  138 1   
   138  131  139 1   
   139  132  136 1   
   140  140  141 1   
   141  140  149 1   
   142  141  142 1   
   143  141  144 1   
   144  141  150 1   
   145  142  143 2   
   146  142  162 1   
   147  144  145 1   
   148  144  151 1   
   149  144  152 1   
   150  145  146 1   
   151  145  153 1   
   152  145  154 1   
   153  146  147 1   
   154  146  155 1   
   155  146  156 1   
   156  147  148 1   
   157  147  157 1   
   158  147  158 1   
   159  148  159 1   
   160  148  160 1   
   161  148  161 1   
   162  162  163 1   
   163  162  171 1   
   164  163  164 1   
   165  163  166 1   
   166  163  172 1   
   167  164  165 2   
   168  164  177 1   
   169  166  167 1   
   170  166  173 1   
   171  166  174 1   
   172  167  168 1   
   173  167  175 1   
   174  167  176 1   
   175  168  169 1   
   176  168  170 1   
   177  177  178 1   
   178  177  182 1   
   179  178  179 1   
   180  178  180 1   
   181  178  181 1   
   182  184  185 1   
   183  184  186 1   
   184  187  188 1   
   185  187  189 1   
   186  190  191 1   
   187  190  192 1   
@<TRIPOS>SUBSTRUCTURE
     1 MOL         1 TEMP              0 ****  ****    0 ROOT
