@<TRIPOS>MOLECULE
MOL
  192   187     1     0     0
SMALL
resp


@<TRIPOS>ATOM
      1 C1          0.7760    8.1520    2.8790 c3        1 MOL     -0.353685
      2 C2          0.2950    6.7630    2.4870 c         1 MOL      0.627463
      3 O1         -0.1060    5.9370    3.3510 o         1 MOL     -0.583757
      4 H1          1.3850    8.0850    3.7810 hc        1 MOL      0.093163
      5 H2          1.3720    8.5730    2.0690 hc        1 MOL      0.093163
      6 H3         -0.0840    8.7950    3.0690 hc        1 MOL      0.093163
      7 N1          0.3460    6.4180    1.1900 n         1 MOL     -0.345536
      8 C3         -0.1600    5.1720    0.6120 c3        1 MOL     -0.027928
      9 C4          1.0410    4.3130    0.0290 c         1 MOL      0.447221
     10 O2          0.8210    3.4360   -0.8050 o         1 MOL     -0.457258
     11 C5         -1.1130    5.5770   -0.4810 c3        1 MOL     -0.081029
     12 C6         -0.4820    6.3830   -1.6340 c         1 MOL      0.654263
     13 O3         -0.4780    5.9180   -2.8000 o         1 MOL     -0.673347
     14 O4          0.0000    7.5350   -1.3950 o         1 MOL     -0.673347
     15 H4          0.5030    7.1750    0.5340 hn        1 MOL      0.191082
     16 H5         -0.7400    4.6400    1.3650 h1        1 MOL      0.112637
     17 H6         -1.9230    6.2030   -0.1150 hc        1 MOL      0.034501
     18 H7         -1.5680    4.6780   -0.8870 hc        1 MOL      0.034501
     19 N2          2.2930    4.5010    0.5790 n         1 MOL     -0.404632
     20 C7          3.4230    3.8540   -0.0690 c3        1 MOL      0.330598
     21 C8          4.2480    3.0420    0.9130 c         1 MOL      0.272594
     22 O5          4.5010    3.5050    1.9910 o         1 MOL     -0.523625
     23 C9          4.2610    4.9230   -0.8140 c3        1 MOL     -0.142011
     24 C10         3.5840    6.0130   -1.6980 c3        1 MOL     -0.141392
     25 C11         2.7940    5.4780   -2.9180 c3        1 MOL      0.021678
     26 C12         2.4400    6.5050   -3.9740 c3        1 MOL     -0.129576
     27 N3          1.8130    7.7070   -3.4470 n4        1 MOL     -0.188195
     28 H8          2.4650    5.2310    1.2430 hn        1 MOL      0.254448
     29 H9          3.1270    3.1880   -0.8770 h1        1 MOL     -0.006340
     30 H10         4.8710    4.3540   -1.5130 hc        1 MOL      0.051215
     31 H11         4.9700    5.4360   -0.1720 hc        1 MOL      0.051215
     32 H12         4.4060    6.7040   -1.8770 hc        1 MOL      0.031971
     33 H13         2.8410    6.5140   -1.0660 hc        1 MOL      0.031971
     34 H14         1.9160    5.0620   -2.4130 hc        1 MOL      0.059187
     35 H15         3.3390    4.6360   -3.3580 hc        1 MOL      0.059187
     36 H16         1.6930    5.9720   -4.5650 hx        1 MOL      0.103986
     37 H17         3.3440    6.7110   -4.5530 hx        1 MOL      0.103986
     38 H18         2.3060    8.0910   -2.6480 hn        1 MOL      0.263427
     39 H19         1.6580    8.4370   -4.1230 hn        1 MOL      0.263427
     40 H20         0.9110    7.4240   -3.0890 hn        1 MOL      0.263427
     41 N4          4.5070    1.7700    0.7680 n         1 MOL     -0.201085
     42 C13         4.5450    0.9240   -0.4350 c3        1 MOL     -0.063931
     43 C14         5.1610    1.6120   -1.6980 c         1 MOL      0.530064
     44 O6          4.5370    1.8630   -2.7540 o         1 MOL     -0.561566
     45 C15         3.2470    0.2140   -0.6990 c3        1 MOL      0.054970
     46 C16         2.6610   -0.4840    0.5430 c         1 MOL      0.669815
     47 O7          3.2400   -0.9140    1.5480 o         1 MOL     -0.761016
     48 O8          1.4060   -0.5770    0.4650 o         1 MOL     -0.761016
     49 H21         4.9200    1.3250    1.5690 hn        1 MOL      0.251965
     50 H22         5.1760    0.0920   -0.1270 h1        1 MOL      0.040282
     51 H23         3.4520   -0.5800   -1.4270 hc        1 MOL      0.015406
     52 H24         2.5310    0.9280   -1.1060 hc        1 MOL      0.015406
     53 N5          6.4000    2.0650   -1.6050 n         1 MOL     -0.390519
     54 C17         7.4500    1.7500   -0.6540 c3        1 MOL     -0.036576
     55 C18         8.2540    0.7180   -1.3550 c         1 MOL      0.584159
     56 O9          8.2920    0.7330   -2.5570 o         1 MOL     -0.572679
     57 H25         6.7580    2.5310   -2.4220 hn        1 MOL      0.309412
     58 H26         7.1470    1.3020    0.2910 h1        1 MOL      0.055188
     59 H27         8.0870    2.6200   -0.4750 h1        1 MOL      0.055188
     60 N6          8.9550   -0.1990   -0.7100 n         1 MOL     -0.444008
     61 C19         8.9630   -0.4070    0.7480 c3        1 MOL     -0.089435
     62 C20         7.7590   -1.2380    1.2490 c         1 MOL      0.557443
     63 O10         7.4800   -1.3390    2.4680 o         1 MOL     -0.566828
     64 C21        10.3170   -0.9610    1.3340 c3        1 MOL     -0.183319
     65 C22        10.7140   -2.3500    0.8430 c         1 MOL      0.721469
     66 O11        10.3210   -2.7520   -0.2490 o         1 MOL     -0.651609
     67 O12        11.5970   -2.9590    1.4450 o         1 MOL     -0.651609
     68 H28         9.4890   -0.8590   -1.2580 hn        1 MOL      0.301705
     69 H29         8.8400    0.5900    1.1850 h1        1 MOL      0.090894
     70 H30        10.2560   -0.8040    2.4090 hc        1 MOL      0.062992
     71 H31        11.0960   -0.2670    1.0360 hc        1 MOL      0.062992
     72 N7          7.0600   -1.9480    0.3830 n         1 MOL     -0.281010
     73 C23         5.9350   -2.7900    0.8410 c3        1 MOL     -0.027716
     74 C24         4.9090   -3.2630   -0.3000 c         1 MOL      0.526840
     75 O13         5.0920   -2.9810   -1.4840 o         1 MOL     -0.480687
     76 H32         7.4170   -1.9710   -0.5700 hn        1 MOL      0.220017
     77 H33         5.3770   -2.2320    1.5980 h1        1 MOL      0.055287
     78 H34         6.3180   -3.7200    1.2670 h1        1 MOL      0.055287
     79 N8          3.8610   -4.0340    0.0460 n         1 MOL     -0.391360
     80 C25         2.8620   -4.6200   -0.8580 c3        1 MOL     -0.226183
     81 C26         1.5900   -3.7840   -0.8830 c         1 MOL      1.139693
     82 O14         1.1910   -3.3110    0.1470 o         1 MOL     -0.873042
     83 C27         2.5590   -6.0520   -0.4350 c3        1 MOL      0.604991
     84 C28         1.4530   -6.7380   -1.1960 c3        1 MOL     -0.576805
     85 O15         2.2650   -6.0140    0.9060 oh        1 MOL     -0.761140
     86 H35         3.7310   -4.2740    1.0180 hn        1 MOL      0.178501
     87 H36         3.3370   -4.6940   -1.8350 h1        1 MOL      0.078581
     88 H37         3.5020   -6.5930   -0.4640 h1        1 MOL     -0.018217
     89 H38         3.0170   -5.9410    1.5020 ho        1 MOL      0.432137
     90 H39         1.4480   -7.8110   -0.9600 hc        1 MOL      0.161302
     91 H40         0.4900   -6.4910   -0.7700 hc        1 MOL      0.161302
     92 H41         1.4880   -6.5660   -2.2660 hc        1 MOL      0.161302
     93 N9          0.9690   -3.6810   -2.0910 n         1 MOL     -0.725585
     94 C29        -0.2440   -2.8740   -2.1700 c3        1 MOL     -0.273309
     95 C30        -1.4570   -3.6920   -1.9380 c         1 MOL      0.706469
     96 O16        -1.5870   -4.7840   -2.4280 o         1 MOL     -0.554726
     97 C31        -0.3060   -1.9580   -3.4170 c3        1 MOL      0.105852
     98 C32        -0.2400   -2.7430   -4.7200 c3        1 MOL      0.009524
     99 C33         0.9490   -1.1150   -3.3090 c3        1 MOL     -0.280011
    100 C34        -0.4990   -1.7450   -5.8890 c3        1 MOL     -0.154903
    101 H42         1.2650   -4.1850   -2.9090 hn        1 MOL      0.360620
    102 H43        -0.1480   -2.1350   -1.3730 h1        1 MOL      0.201309
    103 H44        -1.1360   -1.2680   -3.3590 hc        1 MOL      0.068434
    104 H45        -1.1120   -3.3810   -4.7980 hc        1 MOL      0.041426
    105 H46         0.6450   -3.3420   -4.9380 hc        1 MOL      0.041426
    106 H47         1.0960   -0.5060   -4.2070 hc        1 MOL      0.092005
    107 H48         0.7460   -0.4530   -2.4730 hc        1 MOL      0.092005
    108 H49         1.8810   -1.6500   -3.0880 hc        1 MOL      0.092005
    109 H50        -1.3210   -1.1080   -5.5930 hc        1 MOL      0.035103
    110 H51         0.3670   -1.1820   -6.2420 hc        1 MOL      0.035103
    111 H52        -0.8460   -2.3510   -6.7350 hc        1 MOL      0.035103
    112 N10        -2.5380   -3.2370   -1.2450 n         1 MOL     -0.620569
    113 C35        -3.8360   -3.9750   -0.8990 c3        1 MOL      0.126956
    114 C36        -4.9780   -3.4200   -1.6940 c         1 MOL      0.435159
    115 O17        -5.9590   -4.1840   -2.0100 o         1 MOL     -0.519007
    116 C37        -4.1410   -3.5190    0.5580 c3        1 MOL      0.188828
    117 C38        -5.4660   -4.0290    1.1870 c3        1 MOL     -0.551934
    118 O18        -3.9980   -2.1320    0.7110 oh        1 MOL     -0.307338
    119 H53        -2.4640   -2.3120   -0.8650 hn        1 MOL      0.290948
    120 H54        -3.7920   -5.0640   -0.9750 h1        1 MOL      0.095989
    121 H55        -3.3430   -3.9260    1.1860 h1        1 MOL      0.074571
    122 H56        -3.1710   -1.9580    1.1450 ho        1 MOL      0.158624
    123 H57        -6.2900   -3.5820    0.6410 hc        1 MOL      0.157504
    124 H58        -5.4780   -5.1200    1.2240 hc        1 MOL      0.157504
    125 H59        -5.6170   -3.5490    2.1490 hc        1 MOL      0.157504
    126 N11        -4.9120   -2.0970   -1.9890 n         1 MOL     -0.373372
    127 C39        -6.0400   -1.2460   -2.5300 c3        1 MOL      0.150851
    128 C40        -7.2450   -1.1730   -1.5170 c         1 MOL      0.363404
    129 O19        -8.2930   -1.7670   -1.7990 o         1 MOL     -0.503487
    130 C41        -6.4760   -1.8040   -3.9230 c3        1 MOL      0.294340
    131 C42        -5.3930   -1.9350   -4.9730 c3        1 MOL     -0.380673
    132 O20        -7.3340   -0.8360   -4.4820 oh        1 MOL     -0.688651
    133 H60        -4.0190   -1.6810   -1.7950 hn        1 MOL      0.200266
    134 H61        -5.6150   -0.2690   -2.7330 h1        1 MOL      0.058120
    135 H62        -7.0140   -2.7480   -3.8170 h1        1 MOL      0.072933
    136 H63        -7.5180   -1.0420   -5.3990 ho        1 MOL      0.416863
    137 H64        -5.8780   -2.4080   -5.8230 hc        1 MOL      0.094441
    138 H65        -4.9890   -0.9460   -5.2240 hc        1 MOL      0.094441
    139 H66        -4.5390   -2.5490   -4.6700 hc        1 MOL      0.094441
    140 N12        -6.9690   -0.7110   -0.3300 n         1 MOL     -0.166513
    141 C43        -7.9610   -0.6920    0.7650 c3        1 MOL     -0.081663
    142 C44        -7.2960   -0.8670    2.1410 c         1 MOL      0.391337
    143 O21        -7.9970   -1.2510    3.1110 o         1 MOL     -0.531400
    144 C45        -8.7160    0.6880    0.7380 c3        1 MOL     -0.031231
    145 C46        -9.7260    0.8660   -0.4650 c3        1 MOL      0.115110
    146 C47       -10.3570    2.2430   -0.3860 c3        1 MOL     -0.093180
    147 C48       -11.3140    2.5490   -1.5500 c3        1 MOL      0.063660
    148 N13       -11.4990    3.9730   -1.6260 n4        1 MOL     -0.189886
    149 H67        -6.1380   -0.1430   -0.2510 hn        1 MOL      0.174457
    150 H68        -8.6750   -1.5120    0.6790 h1        1 MOL      0.140477
    151 H69        -7.9270    1.4380    0.7210 hc        1 MOL      0.026030
    152 H70        -9.2840    0.6840    1.6690 hc        1 MOL      0.026030
    153 H71       -10.4670    0.0650   -0.4800 hc        1 MOL      0.001300
    154 H72        -9.0760    0.8380   -1.3390 hc        1 MOL      0.001300
    155 H73        -9.5130    2.9200   -0.2370 hc        1 MOL      0.036688
    156 H74       -10.9550    2.3490    0.5160 hc        1 MOL      0.036688
    157 H75       -12.2440    2.0080   -1.3350 hx        1 MOL      0.071502
    158 H76       -11.0220    2.1780   -2.5260 hx        1 MOL      0.071502
    159 H77       -10.6590    4.3270   -2.0510 hn        1 MOL      0.239033
    160 H78       -12.2840    4.3190   -2.1550 hn        1 MOL      0.239033
    161 H79       -11.5620    4.3820   -0.7080 hn        1 MOL      0.239033
    162 N14        -6.0360   -0.5350    2.2720 n         1 MOL     -0.075868
    163 C49        -5.4370   -0.2790    3.5850 c3        1 MOL     -0.157919
    164 C50        -5.4630    1.1760    4.0650 c         1 MOL      0.465262
    165 O22        -5.5470    2.1360    3.3100 o         1 MOL     -0.527655
    166 C51        -4.0580   -0.9590    3.7800 c3        1 MOL     -0.059317
    167 C52        -2.9290   -0.1960    3.1800 c3        1 MOL     -0.084725
    168 C53        -1.5640   -0.9100    2.9540 c         1 MOL      0.624151
    169 O23        -1.4980   -2.0240    2.3570 o         1 MOL     -0.658483
    170 O24        -0.5700   -0.4290    3.4760 o         1 MOL     -0.658483
    171 H80        -5.5450   -0.4700    1.3950 hn        1 MOL      0.154230
    172 H81        -6.1110   -0.8080    4.2520 h1        1 MOL      0.072722
    173 H82        -4.1780   -1.9010    3.2610 hc        1 MOL      0.039006
    174 H83        -3.7550   -1.1750    4.8070 hc        1 MOL      0.039006
    175 H84        -2.8330    0.5840    3.9370 hc        1 MOL      0.049981
    176 H85        -3.1780    0.1800    2.1930 hc        1 MOL      0.049981
    177 N15        -5.3750    1.3190    5.3950 n         1 MOL     -0.239833
    178 C54        -5.2550    2.6080    6.1080 c3        1 MOL     -0.141229
    179 H86        -4.7120    2.4580    7.0410 h1        1 MOL      0.089417
    180 H87        -4.7140    3.3190    5.4840 h1        1 MOL      0.089417
    181 H88        -6.2490    2.9990    6.3260 h1        1 MOL      0.089417
    182 H89        -5.3460    0.4910    5.9540 hn        1 MOL      0.234844
    183 Ca1         1.0800   -2.3570    2.3950 Ca        1 MOL      1.780921
    184 O25         2.4090   -0.5030    3.9940 oh        1 MOL     -0.863225
    185 H90         2.3710    0.4040    4.2970 ho        1 MOL      0.428994
    186 H91         3.0040   -0.4820    3.2530 ho        1 MOL      0.428994
    187 O26         0.0620   -4.8220    2.1680 oh        1 MOL     -0.863225
    188 H92         0.8840   -5.3110    2.0940 ho        1 MOL      0.428994
    189 H93        -0.5810   -5.3680    1.7130 ho        1 MOL      0.428994
    190 O27         1.1280   -3.2190    4.9340 oh        1 MOL     -0.863225
    191 H94         1.7250   -2.8650    5.5880 ho        1 MOL      0.428994
    192 H95         0.8680   -4.0800    5.2620 ho        1 MOL      0.428994
@<TRIPOS>BOND
     1    1    2 1   
     2    1    4 1   
     3    1    5 1   
     4    1    6 1   
     5    2    3 2   
     6    2    7 1   
     7    7    8 1   
     8    7   15 1   
     9    8    9 1   
    10    8   11 1   
    11    8   16 1   
    12    9   10 2   
    13    9   19 1   
    14   11   12 1   
    15   11   17 1   
    16   11   18 1   
    17   12   13 1   
    18   12   14 1   
    19   19   20 1   
    20   19   28 1   
    21   20   21 1   
    22   20   23 1   
    23   20   29 1   
    24   21   22 2   
    25   21   41 1   
    26   23   24 1   
    27   23   30 1   
    28   23   31 1   
    29   24   25 1   
    30   24   32 1   
    31   24   33 1   
    32   25   26 1   
    33   25   34 1   
    34   25   35 1   
    35   26   27 1   
    36   26   36 1   
    37   26   37 1   
    38   27   38 1   
    39   27   39 1   
    40   27   40 1   
    41   41   42 1   
    42   41   49 1   
    43   42   43 1   
    44   42   45 1   
    45   42   50 1   
    46   43   44 2   
    47   43   53 1   
    48   45   46 1   
    49   45   51 1   
    50   45   52 1   
    51   46   47 1   
    52   46   48 1   
    53   53   54 1   
    54   53   57 1   
    55   54   55 1   
    56   54   58 1   
    57   54   59 1   
    58   55   56 2   
    59   55   60 1   
    60   60   61 1   
    61   60   68 1   
    62   61   62 1   
    63   61   64 1   
    64   61   69 1   
    65   62   63 2   
    66   62   72 1   
    67   64   65 1   
    68   64   70 1   
    69   64   71 1   
    70   65   66 1   
    71   65   67 1   
    72   72   73 1   
    73   72   76 1   
    74   73   74 1   
    75   73   77 1   
    76   73   78 1   
    77   74   75 2   
    78   74   79 1   
    79   79   80 1   
    80   79   86 1   
    81   80   81 1   
    82   80   83 1   
    83   80   87 1   
    84   81   82 2   
    85   81   93 1   
    86   83   84 1   
    87   83   85 1   
    88   83   88 1   
    89   84   90 1   
    90   84   91 1   
    91   84   92 1   
    92   85   89 1   
    93   93   94 1   
    94   93  101 1   
    95   94   95 1   
    96   94   97 1   
    97   94  102 1   
    98   95   96 2   
    99   95  112 1   
   100   97   98 1   
   101   97   99 1   
   102   97  103 1   
   103   98  100 1   
   104   98  104 1   
   105   98  105 1   
   106   99  106 1   
   107   99  107 1   
   108   99  108 1   
   109  100  109 1   
   110  100  110 1   
   111  100  111 1   
   112  112  113 1   
   113  112  119 1   
   114  113  114 1   
   115  113  116 1   
   116  113  120 1   
   117  114  115 2   
   118  114  126 1   
   119  116  117 1   
   120  116  118 1   
   121  116  121 1   
   122  117  123 1   
   123  117  124 1   
   124  117  125 1   
   125  118  122 1   
   126  126  127 1   
   127  126  133 1   
   128  127  128 1   
   129  127  130 1   
   130  127  134 1   
   131  128  129 2   
   132  128  140 1   
   133  130  131 1   
   134  130  132 1   
   135  130  135 1   
   136  131  137 1   
   137  131  138 1   
   138  131  139 1   
   139  132  136 1   
   140  140  141 1   
   141  140  149 1   
   142  141  142 1   
   143  141  144 1   
   144  141  150 1   
   145  142  143 2   
   146  142  162 1   
   147  144  145 1   
   148  144  151 1   
   149  144  152 1   
   150  145  146 1   
   151  145  153 1   
   152  145  154 1   
   153  146  147 1   
   154  146  155 1   
   155  146  156 1   
   156  147  148 1   
   157  147  157 1   
   158  147  158 1   
   159  148  159 1   
   160  148  160 1   
   161  148  161 1   
   162  162  163 1   
   163  162  171 1   
   164  163  164 1   
   165  163  166 1   
   166  163  172 1   
   167  164  165 2   
   168  164  177 1   
   169  166  167 1   
   170  166  173 1   
   171  166  174 1   
   172  167  168 1   
   173  167  175 1   
   174  167  176 1   
   175  168  169 1   
   176  168  170 1   
   177  177  178 1   
   178  177  182 1   
   179  178  179 1   
   180  178  180 1   
   181  178  181 1   
   182  184  185 1   
   183  184  186 1   
   184  187  188 1   
   185  187  189 1   
   186  190  191 1   
   187  190  192 1   
@<TRIPOS>SUBSTRUCTURE
     1 MOL         1 TEMP              0 ****  ****    0 ROOT
