@<TRIPOS>MOLECULE
MOL
  179   176     1     0     0
SMALL
resp


@<TRIPOS>ATOM
      1 C1          6.1130    2.0690    1.8320 c3        1 MOL     -0.340889
      2 C2          7.0070    1.8580    0.5880 c         1 MOL      0.745831
      3 O1          6.5250    1.3420   -0.4210 o         1 MOL     -0.532373
      4 H1          5.3170    2.7740    1.5920 hc        1 MOL      0.078184
      5 H2          5.6760    1.1170    2.1310 hc        1 MOL      0.078184
      6 H3          6.7150    2.4660    2.6490 hc        1 MOL      0.078184
      7 N1          8.3600    2.1260    0.6730 n         1 MOL     -0.573522
      8 C3          9.3670    1.9040   -0.3840 c3        1 MOL      0.148833
      9 C4          9.2950    0.5170   -0.9260 c         1 MOL      0.552934
     10 O2          9.7170    0.2980   -2.0900 o         1 MOL     -0.526268
     11 C5          9.6200    3.0100   -1.3810 c3        1 MOL     -0.333357
     12 C6          9.6400    4.3600   -0.6700 c         1 MOL      0.740284
     13 O3         10.1800    4.5660    0.4210 o         1 MOL     -0.655640
     14 O4          9.1080    5.3360   -1.3050 o         1 MOL     -0.655640
     15 H4          8.7380    2.2760    1.5990 hn        1 MOL      0.306544
     16 H5         10.2430    1.8250    0.2550 h1        1 MOL      0.035791
     17 H6          8.8420    3.0120   -2.1480 hc        1 MOL      0.110678
     18 H7         10.6320    2.8390   -1.7500 hc        1 MOL      0.110678
     19 N2          8.9500   -0.5280   -0.0960 n         1 MOL     -0.380849
     20 C7          8.8710   -1.9160   -0.4800 c3        1 MOL      0.017483
     21 C8          7.4480   -2.5120   -0.5470 c         1 MOL      0.539061
     22 O5          7.2010   -3.7240   -0.7060 o         1 MOL     -0.588727
     23 C9          9.8340   -2.7610    0.4220 c3        1 MOL     -0.118422
     24 C10         9.4450   -2.8030    1.8910 c3        1 MOL      0.099135
     25 C11        10.2410   -3.8380    2.7050 c3        1 MOL     -0.043347
     26 C12         9.5480   -3.9470    4.0690 c3        1 MOL      0.062057
     27 N3         10.0670   -5.1460    4.7610 n4        1 MOL     -0.137522
     28 H8          8.4270   -0.2470    0.7280 hn        1 MOL      0.133520
     29 H9          9.2340   -1.9720   -1.5090 h1        1 MOL      0.113090
     30 H10        10.8230   -2.3120    0.3710 hc        1 MOL      0.043407
     31 H11         9.8980   -3.7710    0.0190 hc        1 MOL      0.043407
     32 H12         8.3930   -3.0930    1.9500 hc        1 MOL      0.001966
     33 H13         9.5820   -1.7940    2.2620 hc        1 MOL      0.001966
     34 H14        11.2730   -3.5060    2.7500 hc        1 MOL      0.032040
     35 H15        10.1350   -4.7870    2.1850 hc        1 MOL      0.032040
     36 H16         8.4640   -3.9860    3.9470 hx        1 MOL      0.054619
     37 H17         9.7640   -3.0260    4.6090 hx        1 MOL      0.054619
     38 H18         9.6380   -5.3220    5.6610 hn        1 MOL      0.210724
     39 H19         9.8360   -5.9160    4.1520 hn        1 MOL      0.210724
     40 H20        11.0750   -5.2050    4.7580 hn        1 MOL      0.210724
     41 N4          6.4750   -1.6680   -0.3360 n         1 MOL     -0.353727
     42 C13         5.0550   -1.8410   -0.5240 c3        1 MOL     -0.098921
     43 C14         4.6390   -1.8350   -2.0340 c         1 MOL      0.651686
     44 O6          4.6720   -0.7610   -2.6350 o         1 MOL     -0.515415
     45 C15         4.2210   -0.8610    0.2800 c3        1 MOL      0.119313
     46 C16         2.6930   -1.0490    0.3200 c         1 MOL      0.516911
     47 O7          1.9300   -0.2810    0.9320 o         1 MOL     -0.732942
     48 O8          2.2430   -2.0600   -0.2480 o         1 MOL     -0.732942
     49 H21         6.7610   -0.7090   -0.3180 hn        1 MOL      0.224480
     50 H22         4.8310   -2.8680   -0.2380 h1        1 MOL      0.051588
     51 H23         4.3050    0.1330   -0.1630 hc        1 MOL     -0.001059
     52 H24         4.6330   -0.8520    1.2810 hc        1 MOL     -0.001059
     53 N5          4.3110   -2.9930   -2.6650 n         1 MOL     -0.407837
     54 C17         3.8430   -3.2080   -4.0440 c3        1 MOL     -0.218551
     55 C18         2.4280   -2.6860   -4.3540 c         1 MOL      0.451442
     56 O9          2.0190   -2.5600   -5.5150 o         1 MOL     -0.545488
     57 H25         4.2800   -3.8260   -2.0890 hn        1 MOL      0.287703
     58 H26         3.8340   -4.2830   -4.2680 h1        1 MOL      0.137394
     59 H27         4.6130   -2.7450   -4.6540 h1        1 MOL      0.137394
     60 N6          1.7410   -2.2700   -3.3270 n         1 MOL     -0.158252
     61 C19         0.6200   -1.4080   -3.5550 c3        1 MOL      0.095321
     62 C20         0.6530   -0.3390   -2.4190 c         1 MOL      0.527245
     63 O10        -0.0390   -0.2860   -1.3840 o         1 MOL     -0.488106
     64 C21        -0.7800   -2.0990   -3.5050 c3        1 MOL     -0.269167
     65 C22        -0.8070   -3.3090   -2.5690 c         1 MOL      0.546690
     66 N7         -1.3970   -4.3760   -2.9250 n         1 MOL     -0.674662
     67 O11        -0.2440   -3.2190   -1.5110 o         1 MOL     -0.574689
     68 H28         2.1230   -2.3440   -2.3960 hn        1 MOL      0.201227
     69 H29         0.6860   -0.8100   -4.4660 h1        1 MOL      0.056262
     70 H30        -1.0100   -2.3780   -4.5390 hc        1 MOL      0.092493
     71 H31        -1.4770   -1.3280   -3.2000 hc        1 MOL      0.092493
     72 H32        -1.7710   -4.5570   -3.8470 hn        1 MOL      0.350412
     73 H33        -1.3880   -5.1210   -2.2440 hn        1 MOL      0.350412
     74 N8          1.5950    0.5750   -2.6370 n         1 MOL     -0.478433
     75 C23         1.8990    1.6720   -1.7140 c3        1 MOL     -0.039545
     76 C24         0.7270    2.5300   -1.2510 c         1 MOL      0.574965
     77 O12         0.1290    3.2370   -2.0850 o         1 MOL     -0.550759
     78 H34         2.2710    0.4200   -3.3740 hn        1 MOL      0.323758
     79 H35         2.6460    2.3630   -2.1140 h1        1 MOL      0.102380
     80 H36         2.3560    1.2770   -0.8090 h1        1 MOL      0.102380
     81 N9          0.3720    2.4890    0.0310 n         1 MOL     -0.652342
     82 C25        -0.9020    3.0250    0.5920 c3        1 MOL      0.606012
     83 C26        -1.9000    1.8780    0.8540 c         1 MOL      0.523594
     84 O13        -1.5380    0.6690    1.0720 o         1 MOL     -0.653824
     85 C27        -0.6480    3.8240    1.8380 c3        1 MOL     -0.032215
     86 C28         0.2720    5.0390    1.7220 ca        1 MOL     -0.046839
     87 C29         0.0410    6.0150    0.7650 ca        1 MOL     -0.124104
     88 C30         1.3770    5.1950    2.6290 ca        1 MOL     -0.124104
     89 C31         0.9000    7.1040    0.6470 ca        1 MOL     -0.307884
     90 C32         2.2530    6.2850    2.5260 ca        1 MOL     -0.307884
     91 C33         2.0710    7.1370    1.3970 ca        1 MOL      0.431383
     92 O14         2.9960    8.1250    1.2720 oh        1 MOL     -0.508613
     93 H37         1.0200    2.0020    0.6370 hn        1 MOL      0.320457
     94 H38        -1.4340    3.6420   -0.1250 h1        1 MOL     -0.057198
     95 H39        -0.1910    3.2250    2.6220 hc        1 MOL     -0.023341
     96 H40        -1.6100    4.2350    2.1290 hc        1 MOL     -0.023341
     97 H41        -0.8410    5.9060    0.1470 ha        1 MOL      0.123318
     98 H42         1.5040    4.3770    3.3240 ha        1 MOL      0.123318
     99 H43         0.7530    7.9130   -0.0530 ha        1 MOL      0.170633
    100 H44         3.0560    6.3850    3.2340 ha        1 MOL      0.170633
    101 H45         3.6970    8.0960    1.9260 ho        1 MOL      0.373357
    102 N10        -3.2200    2.2640    0.7840 n         1 MOL     -0.540228
    103 C34        -4.5030    1.5260    1.1620 c3        1 MOL      0.040941
    104 C35        -5.5730    1.8380    0.1630 c         1 MOL      0.520264
    105 O15        -6.2060    0.9010   -0.3150 o         1 MOL     -0.413356
    106 C36        -4.8930    1.8760    2.5880 c3        1 MOL     -0.061640
    107 C37        -3.8540    1.3940    3.6550 c3        1 MOL      0.227508
    108 C38        -6.1980    1.1530    2.8780 c3        1 MOL     -0.380341
    109 C39        -4.1220    1.9140    5.0990 c3        1 MOL     -0.382567
    110 H46        -3.4280    3.2400    0.6010 hn        1 MOL      0.226101
    111 H47        -4.2510    0.4670    1.1960 h1        1 MOL      0.127739
    112 H48        -5.0980    2.9390    2.6680 hc        1 MOL      0.026615
    113 H49        -2.8700    1.7710    3.3820 hc        1 MOL      0.001718
    114 H50        -3.7960    0.3060    3.7530 hc        1 MOL      0.001718
    115 H51        -6.9970    1.6330    2.3230 hc        1 MOL      0.116855
    116 H52        -6.0620    0.1020    2.5970 hc        1 MOL      0.116855
    117 H53        -6.4850    1.1300    3.9230 hc        1 MOL      0.116855
    118 H54        -4.1850    2.9990    5.0910 hc        1 MOL      0.087277
    119 H55        -4.9950    1.3750    5.4620 hc        1 MOL      0.087277
    120 H56        -3.2800    1.6550    5.7490 hc        1 MOL      0.087277
    121 N11        -5.7230    3.0720   -0.3360 n         1 MOL     -0.302466
    122 C40        -6.5520    3.5590   -1.3970 c3        1 MOL     -0.302124
    123 C41        -7.9740    2.9710   -1.5050 c         1 MOL      0.559996
    124 O16        -8.4800    2.9130   -2.6330 o         1 MOL     -0.487613
    125 C42        -6.5240    5.0830   -1.2670 c3        1 MOL      0.314549
    126 O17        -5.4590    5.7300   -1.9710 oh        1 MOL     -0.593468
    127 H57        -5.2800    3.7880    0.2400 hn        1 MOL      0.240629
    128 H58        -6.0770    3.3140   -2.3480 h1        1 MOL      0.186480
    129 H59        -6.6100    5.4800   -0.2540 h1        1 MOL      0.025450
    130 H60        -7.4270    5.4840   -1.7140 h1        1 MOL      0.025450
    131 H61        -4.6630    5.1900   -2.0340 ho        1 MOL      0.389318
    132 N12        -8.6340    2.5080   -0.3960 n         1 MOL     -0.598242
    133 C43        -9.9250    1.7440   -0.3540 c3        1 MOL      0.251301
    134 C44        -9.8590    0.3390   -0.9990 c         1 MOL      0.349190
    135 O18       -10.8520   -0.2190   -1.3910 o         1 MOL     -0.490523
    136 C45       -11.0470    2.6770   -0.7880 c3        1 MOL     -0.343330
    137 H62        -8.1940    2.6050    0.5060 hn        1 MOL      0.321926
    138 H63       -10.0810    1.5900    0.7180 h1        1 MOL      0.049162
    139 H64       -12.0130    2.1730   -0.7850 hc        1 MOL      0.108352
    140 H65       -11.1560    3.5610   -0.1540 hc        1 MOL      0.108352
    141 H66       -10.9900    2.8950   -1.8560 hc        1 MOL      0.108352
    142 N13        -8.6410   -0.2530   -1.1880 n         1 MOL     -0.158111
    143 C46        -8.2640   -1.6360   -1.3660 c3        1 MOL      0.193270
    144 C47        -7.6170   -2.3900   -0.1300 c         1 MOL      0.370680
    145 O19        -7.4180   -1.7980    0.9550 o         1 MOL     -0.577912
    146 C48        -7.2540   -1.6230   -2.5290 c3        1 MOL     -0.270916
    147 H67        -7.8690    0.3550   -0.9480 hn        1 MOL      0.127959
    148 H68        -9.1120   -2.2550   -1.6490 h1        1 MOL      0.022235
    149 H69        -6.2690   -1.1870   -2.3640 hc        1 MOL      0.080295
    150 H70        -7.0360   -2.6750   -2.7470 hc        1 MOL      0.080295
    151 H71        -7.6050   -1.0410   -3.3790 hc        1 MOL      0.080295
    152 N14        -7.2850   -3.6800   -0.2830 n         1 MOL     -0.406180
    153 C49        -6.5960   -4.5830    0.6910 c3        1 MOL     -0.113673
    154 C50        -7.3570   -5.0780    1.8840 c         1 MOL      0.513369
    155 O20        -7.5750   -6.2900    2.0940 o         1 MOL     -0.544775
    156 C51        -5.1730   -4.0930    1.0600 c3        1 MOL     -0.091756
    157 C52        -4.1510   -3.8910   -0.0660 c3        1 MOL      0.012878
    158 C53        -2.8310   -3.2480    0.4250 c         1 MOL      0.594187
    159 O21        -2.5800   -2.0290    0.2590 o         1 MOL     -0.719415
    160 O22        -1.8700   -3.8960    0.9400 o         1 MOL     -0.719415
    161 H72        -7.6090   -4.1130   -1.1430 hn        1 MOL      0.325710
    162 H73        -6.5070   -5.4900    0.0800 h1        1 MOL      0.085621
    163 H74        -4.8020   -4.8340    1.7640 hc        1 MOL      0.065747
    164 H75        -5.2160   -3.2200    1.7150 hc        1 MOL      0.065747
    165 H76        -4.6020   -3.1780   -0.7620 hc        1 MOL      0.010502
    166 H77        -4.0190   -4.7870   -0.6650 hc        1 MOL      0.010502
    167 N15        -7.8460   -4.1670    2.6560 n         1 MOL     -0.259170
    168 C54        -8.2170   -4.4970    4.0330 c3        1 MOL     -0.151505
    169 H78        -7.4220   -5.0840    4.4920 h1        1 MOL      0.080955
    170 H79        -8.3640   -3.5780    4.6010 h1        1 MOL      0.080955
    171 H80        -9.1410   -5.0750    4.0320 h1        1 MOL      0.080955
    172 H81        -7.5280   -3.2290    2.4570 hn        1 MOL      0.300881
    173 Ca1        -0.1860   -1.8130    0.8500 Ca        1 MOL      1.852621
    174 O23         1.1120   -3.8180    1.7930 oh        1 MOL     -0.900177
    175 H82         2.0710   -3.8920    1.7710 ho        1 MOL      0.439089
    176 H83         0.8250   -4.5270    2.3620 ho        1 MOL      0.439089
    177 O24        -0.6390   -1.4800    3.5580 oh        1 MOL     -0.900177
    178 H84        -0.9610   -2.0520    4.2570 ho        1 MOL      0.439089
    179 H85        -0.4690   -0.6470    4.0010 ho        1 MOL      0.439089
@<TRIPOS>BOND
     1    1    2 1   
     2    1    4 1   
     3    1    5 1   
     4    1    6 1   
     5    2    3 2   
     6    2    7 1   
     7    7    8 1   
     8    7   15 1   
     9    8    9 1   
    10    8   11 1   
    11    8   16 1   
    12    9   10 2   
    13    9   19 1   
    14   11   12 1   
    15   11   17 1   
    16   11   18 1   
    17   12   13 1   
    18   12   14 1   
    19   19   20 1   
    20   19   28 1   
    21   20   21 1   
    22   20   23 1   
    23   20   29 1   
    24   21   22 2   
    25   21   41 1   
    26   23   24 1   
    27   23   30 1   
    28   23   31 1   
    29   24   25 1   
    30   24   32 1   
    31   24   33 1   
    32   25   26 1   
    33   25   34 1   
    34   25   35 1   
    35   26   27 1   
    36   26   36 1   
    37   26   37 1   
    38   27   38 1   
    39   27   39 1   
    40   27   40 1   
    41   41   42 1   
    42   41   49 1   
    43   42   43 1   
    44   42   45 1   
    45   42   50 1   
    46   43   44 2   
    47   43   53 1   
    48   45   46 1   
    49   45   51 1   
    50   45   52 1   
    51   46   47 1   
    52   46   48 1   
    53   53   54 1   
    54   53   57 1   
    55   54   55 1   
    56   54   58 1   
    57   54   59 1   
    58   55   56 2   
    59   55   60 1   
    60   60   61 1   
    61   60   68 1   
    62   61   62 1   
    63   61   64 1   
    64   61   69 1   
    65   62   63 2   
    66   62   74 1   
    67   64   65 1   
    68   64   70 1   
    69   64   71 1   
    70   65   66 1   
    71   65   67 2   
    72   66   72 1   
    73   66   73 1   
    74   74   75 1   
    75   74   78 1   
    76   75   76 1   
    77   75   79 1   
    78   75   80 1   
    79   76   77 2   
    80   76   81 1   
    81   81   82 1   
    82   81   93 1   
    83   82   83 1   
    84   82   85 1   
    85   82   94 1   
    86   83   84 2   
    87   83  102 1   
    88   85   86 1   
    89   85   95 1   
    90   85   96 1   
    91   86   87 ar  
    92   86   88 ar  
    93   87   89 ar  
    94   87   97 1   
    95   88   90 ar  
    96   88   98 1   
    97   89   91 ar  
    98   89   99 1   
    99   90   91 ar  
   100   90  100 1   
   101   91   92 1   
   102   92  101 1   
   103  102  103 1   
   104  102  110 1   
   105  103  104 1   
   106  103  106 1   
   107  103  111 1   
   108  104  105 2   
   109  104  121 1   
   110  106  107 1   
   111  106  108 1   
   112  106  112 1   
   113  107  109 1   
   114  107  113 1   
   115  107  114 1   
   116  108  115 1   
   117  108  116 1   
   118  108  117 1   
   119  109  118 1   
   120  109  119 1   
   121  109  120 1   
   122  121  122 1   
   123  121  127 1   
   124  122  123 1   
   125  122  125 1   
   126  122  128 1   
   127  123  124 2   
   128  123  132 1   
   129  125  126 1   
   130  125  129 1   
   131  125  130 1   
   132  126  131 1   
   133  132  133 1   
   134  132  137 1   
   135  133  134 1   
   136  133  136 1   
   137  133  138 1   
   138  134  135 2   
   139  134  142 1   
   140  136  139 1   
   141  136  140 1   
   142  136  141 1   
   143  142  143 1   
   144  142  147 1   
   145  143  144 1   
   146  143  146 1   
   147  143  148 1   
   148  144  145 2   
   149  144  152 1   
   150  146  149 1   
   151  146  150 1   
   152  146  151 1   
   153  152  153 1   
   154  152  161 1   
   155  153  154 1   
   156  153  156 1   
   157  153  162 1   
   158  154  155 2   
   159  154  167 1   
   160  156  157 1   
   161  156  163 1   
   162  156  164 1   
   163  157  158 1   
   164  157  165 1   
   165  157  166 1   
   166  158  159 1   
   167  158  160 1   
   168  167  168 1   
   169  167  172 1   
   170  168  169 1   
   171  168  170 1   
   172  168  171 1   
   173  174  175 1   
   174  174  176 1   
   175  177  178 1   
   176  177  179 1   
@<TRIPOS>SUBSTRUCTURE
     1 MOL         1 TEMP              0 ****  ****    0 ROOT
