@<TRIPOS>MOLECULE
MOL
  192   187     1     0     0
SMALL
resp


@<TRIPOS>ATOM
      1 C1         11.0250   -0.8650   -0.1280 c3        1 MOL     -0.404542
      2 C2          9.4580   -1.1940   -0.1390 c         1 MOL      0.482840
      3 O1          8.8810   -1.2470    0.9880 o         1 MOL     -0.531057
      4 H1         11.1690    0.2120   -0.0460 hc        1 MOL      0.115206
      5 H2         11.4950   -1.3600    0.7230 hc        1 MOL      0.115206
      6 H3         11.4790   -1.2220   -1.0530 hc        1 MOL      0.115206
      7 N1          8.7760   -1.0620   -1.2840 n         1 MOL     -0.327916
      8 C3          7.3600   -0.9150   -1.2740 c3        1 MOL     -0.046795
      9 C4          6.6980   -2.3000   -1.2380 c         1 MOL      0.377436
     10 O2          6.0510   -2.7020   -2.2190 o         1 MOL     -0.447785
     11 C5          6.9170    0.0510   -2.5120 c3        1 MOL      0.156682
     12 C6          7.7570    1.2820   -2.7550 c         1 MOL      0.660571
     13 O3          8.9900    1.1550   -2.9570 o         1 MOL     -0.652635
     14 O4          7.1350    2.3540   -2.9250 o         1 MOL     -0.652635
     15 H4          9.2170   -0.7860   -2.1500 hn        1 MOL      0.247814
     16 H5          6.9340   -0.4920   -0.3610 h1        1 MOL      0.081588
     17 H6          5.9000    0.2450   -2.1580 hc        1 MOL     -0.023422
     18 H7          6.9060   -0.4890   -3.4570 hc        1 MOL     -0.023422
     19 N2          6.6740   -2.8800   -0.0700 n         1 MOL     -0.230019
     20 C7          5.7600   -4.0320    0.2680 c3        1 MOL      0.096396
     21 C8          4.3360   -3.9730   -0.3200 c         1 MOL      0.429022
     22 O5          3.9760   -4.9810   -0.9420 o         1 MOL     -0.540979
     23 C9          5.8720   -4.4360    1.7670 c3        1 MOL     -0.010521
     24 C10         7.3510   -4.6220    2.1810 c3        1 MOL      0.204091
     25 C11         7.4370   -4.9480    3.6710 c3        1 MOL     -0.002089
     26 C12         8.8130   -4.6800    4.1590 c3        1 MOL      0.031675
     27 N3          9.6240   -5.9280    3.9690 n4        1 MOL     -0.458706
     28 H8          7.3840   -2.6440    0.6030 hn        1 MOL      0.066995
     29 H9          6.1980   -4.9150   -0.1890 h1        1 MOL      0.030819
     30 H10         5.3830   -5.4050    1.8780 hc        1 MOL     -0.001711
     31 H11         5.3520   -3.7590    2.4310 hc        1 MOL     -0.001711
     32 H12         7.8530   -3.6660    2.0220 hc        1 MOL     -0.041716
     33 H13         7.8080   -5.4460    1.6300 hc        1 MOL     -0.041716
     34 H14         7.2520   -5.9940    3.8980 hc        1 MOL      0.018531
     35 H15         6.7220   -4.3040    4.1940 hc        1 MOL      0.018531
     36 H16         8.7860   -4.3320    5.1930 hx        1 MOL      0.091764
     37 H17         9.2680   -3.8980    3.5360 hx        1 MOL      0.091764
     38 H18         9.2620   -6.6780    4.5340 hn        1 MOL      0.332317
     39 H19         9.5900   -6.2080    2.9910 hn        1 MOL      0.332317
     40 H20        10.5660   -5.7710    4.2930 hn        1 MOL      0.332317
     41 N4          3.5620   -2.8990   -0.3530 n         1 MOL     -0.300625
     42 C13         3.7460   -1.6800    0.4770 c3        1 MOL     -0.058351
     43 C14         3.8140   -0.3050   -0.2190 c         1 MOL      0.057813
     44 O6          3.5220   -0.3430   -1.4220 o         1 MOL     -0.296670
     45 C15         2.5440   -1.7440    1.4330 c3        1 MOL     -0.096401
     46 C16         1.1940   -1.9110    0.8360 c         1 MOL      0.515787
     47 O7          0.8490   -1.2190   -0.2090 o         1 MOL     -0.572684
     48 O8          0.4240   -2.8200    1.2350 o         1 MOL     -0.572684
     49 H21         2.6260   -3.0790   -0.7110 hn        1 MOL      0.345405
     50 H22         4.6930   -1.7710    0.9980 h1        1 MOL      0.113446
     51 H23         2.6830   -0.9200    2.1260 hc        1 MOL      0.044190
     52 H24         2.5730   -2.6960    1.9720 hc        1 MOL      0.044190
     53 N5          4.0210    0.9130    0.4110 n         1 MOL     -0.090770
     54 C17         4.2600    2.1810   -0.3080 c3        1 MOL     -0.274331
     55 C18         2.9510    2.8510   -0.6720 c         1 MOL      0.898734
     56 O9          1.9000    2.2410   -0.6160 o         1 MOL     -0.739075
     57 H25         4.1400    0.9050    1.4150 hn        1 MOL      0.226422
     58 H26         4.8580    1.9160   -1.1690 h1        1 MOL      0.090496
     59 H27         4.8010    2.8650    0.3380 h1        1 MOL      0.090496
     60 N6          2.9570    4.1320   -1.0620 n         1 MOL     -0.485203
     61 C19         1.8760    4.9080   -1.7030 c3        1 MOL      0.050873
     62 C20         2.2260    6.4680   -1.5060 c         1 MOL      0.616391
     63 O10         3.3460    6.7220   -1.4380 o         1 MOL     -0.519802
     64 C21         1.6760    4.5790   -3.2410 c3        1 MOL     -0.219490
     65 C22         1.5130    3.0400   -3.5480 c         1 MOL      0.606082
     66 O11         0.4600    2.5180   -3.1190 o         1 MOL     -0.622654
     67 O12         2.3670    2.4370   -4.2030 o         1 MOL     -0.622654
     68 H28         3.7570    4.6840   -0.7850 hn        1 MOL      0.284265
     69 H29         0.9320    4.6370   -1.2170 h1        1 MOL      0.074459
     70 H30         2.5210    4.9440   -3.8310 hc        1 MOL      0.059907
     71 H31         0.8270    5.1640   -3.5920 hc        1 MOL      0.059907
     72 N7          1.3010    7.4030   -1.2110 n         1 MOL     -0.507101
     73 C23        -0.1360    7.4530   -1.4350 c3        1 MOL     -0.001242
     74 C24        -0.8160    6.6100   -0.3920 c         1 MOL      0.667832
     75 O13        -0.5160    6.7480    0.7970 o         1 MOL     -0.570657
     76 H32         1.5250    8.3770   -1.0780 hn        1 MOL      0.320298
     77 H33        -0.3480    7.0670   -2.4420 h1        1 MOL      0.041580
     78 H34        -0.6140    8.4160   -1.2870 h1        1 MOL      0.041580
     79 N8         -1.7590    5.7790   -0.7380 n         1 MOL     -0.521191
     80 C25        -2.5240    4.9560    0.1960 c3        1 MOL     -0.151020
     81 C26        -1.5870    3.7940    0.6670 c         1 MOL      0.870061
     82 O14        -0.9790    3.1800   -0.1730 o         1 MOL     -0.794428
     83 C27        -3.7080    4.2960   -0.5400 c3        1 MOL      0.605281
     84 C28        -4.6400    5.4480   -0.9540 c3        1 MOL     -0.414098
     85 O15        -4.4240    3.3920    0.2020 oh        1 MOL     -0.719381
     86 H35        -2.1530    5.9300   -1.6540 hn        1 MOL      0.271667
     87 H36        -2.9480    5.5520    1.0030 h1        1 MOL      0.094200
     88 H37        -3.3150    3.8130   -1.4340 h1        1 MOL     -0.058006
     89 H38        -4.9160    2.7670   -0.3330 ho        1 MOL      0.417847
     90 H39        -4.2260    6.2230   -1.5880 hc        1 MOL      0.100220
     91 H40        -5.4760    4.9440   -1.4540 hc        1 MOL      0.100220
     92 H41        -5.0500    5.8860   -0.0460 hc        1 MOL      0.100220
     93 N9         -1.4920    3.6110    1.9670 n         1 MOL     -0.486883
     94 C29        -0.6930    2.6620    2.8200 c3        1 MOL      0.241404
     95 C30        -0.9600    1.2190    2.5020 c         1 MOL      0.272616
     96 O16        -0.4430    0.6080    1.5470 o         1 MOL     -0.442742
     97 C31         0.8520    2.9550    2.7570 c3        1 MOL      0.003444
     98 C32         1.1170    4.3970    3.2460 c3        1 MOL      0.153234
     99 C33         1.6050    1.9040    3.7070 c3        1 MOL     -0.599044
    100 C34         2.6030    4.7570    3.0890 c3        1 MOL     -0.244112
    101 H42        -2.0460    4.2200    2.5470 hn        1 MOL      0.239642
    102 H43        -0.9220    2.8870    3.8620 h1        1 MOL      0.022714
    103 H44         1.2670    2.8750    1.7510 hc        1 MOL      0.088658
    104 H45         0.7290    4.5550    4.2570 hc        1 MOL     -0.019501
    105 H46         0.5230    5.0670    2.6270 hc        1 MOL     -0.019501
    106 H47         1.5990    0.8540    3.4150 hc        1 MOL      0.163244
    107 H48         2.6560    2.1670    3.7130 hc        1 MOL      0.163244
    108 H49         1.2880    1.8180    4.7490 hc        1 MOL      0.163244
    109 H50         3.2590    4.1160    3.6710 hc        1 MOL      0.053305
    110 H51         2.8630    4.8880    2.0380 hc        1 MOL      0.053305
    111 H52         2.7050    5.7320    3.5650 hc        1 MOL      0.053305
    112 N10        -1.8290    0.6420    3.3810 n         1 MOL     -0.330023
    113 C35        -2.2920   -0.6940    3.2540 c3        1 MOL      0.085410
    114 C36        -3.8130   -0.8670    3.0520 c         1 MOL      0.342189
    115 O17        -4.3440   -1.9550    3.2460 o         1 MOL     -0.528155
    116 C37        -1.6300   -1.7280    4.1810 c3        1 MOL      0.448314
    117 C38        -1.3530   -1.0410    5.5850 c3        1 MOL     -0.407206
    118 O18        -0.3150   -2.0100    3.7120 oh        1 MOL     -0.599430
    119 H53        -2.2970    1.2840    3.9980 hn        1 MOL      0.250369
    120 H54        -1.9300   -0.9960    2.2720 h1        1 MOL      0.061693
    121 H55        -2.2540   -2.6100    4.2610 h1        1 MOL     -0.018809
    122 H56        -0.3130   -2.2660    2.7910 ho        1 MOL      0.316259
    123 H57        -2.2820   -0.5990    5.9510 hc        1 MOL      0.089121
    124 H58        -0.8860   -1.7650    6.2670 hc        1 MOL      0.089121
    125 H59        -0.6260   -0.2630    5.3790 hc        1 MOL      0.089121
    126 N11        -4.5070    0.2130    2.7350 n         1 MOL     -0.097467
    127 C39        -6.0150    0.3720    2.6800 c3        1 MOL     -0.058643
    128 C40        -6.5370   -0.3880    1.3910 c         1 MOL      0.479756
    129 O19        -6.8970    0.1930    0.3640 o         1 MOL     -0.521446
    130 C41        -6.5130    1.7630    2.6710 c3        1 MOL      0.454150
    131 C42        -7.8670    1.9020    3.3280 c3        1 MOL     -0.392503
    132 O20        -5.7780    2.6460    3.4520 oh        1 MOL     -0.664465
    133 H60        -3.9900    1.0750    2.6970 hn        1 MOL      0.133676
    134 H61        -6.4040   -0.1580    3.5470 h1        1 MOL      0.066762
    135 H62        -6.5830    2.2380    1.6940 h1        1 MOL     -0.006914
    136 H63        -6.2750    3.4650    3.5330 ho        1 MOL      0.414754
    137 H64        -8.5320    1.1980    2.8290 hc        1 MOL      0.094275
    138 H65        -7.8440    1.7790    4.4090 hc        1 MOL      0.094275
    139 H66        -8.3470    2.8700    3.2290 hc        1 MOL      0.094275
    140 N12        -6.5680   -1.7360    1.4300 n         1 MOL     -0.583566
    141 C43        -6.5040   -2.5940    0.2960 c3        1 MOL      0.250166
    142 C44        -5.1780   -2.3160   -0.5680 c         1 MOL      0.389076
    143 O21        -4.6200   -1.1900   -0.5710 o         1 MOL     -0.440585
    144 C45        -7.7990   -2.6460   -0.6050 c3        1 MOL      0.016435
    145 C46        -9.1500   -2.8970    0.1190 c3        1 MOL     -0.015452
    146 C47       -10.2610   -3.0210   -0.9550 c3        1 MOL      0.071289
    147 C48       -11.6920   -3.1430   -0.3800 c3        1 MOL     -0.049790
    148 N13       -12.6040   -3.7970   -1.3430 n4        1 MOL     -0.185755
    149 H67        -6.2570   -2.1210    2.3080 hn        1 MOL      0.314522
    150 H68        -6.4930   -3.6030    0.7050 h1        1 MOL      0.030461
    151 H69        -7.6680   -3.4620   -1.3120 hc        1 MOL      0.013104
    152 H70        -7.8790   -1.8160   -1.2960 hc        1 MOL      0.013104
    153 H71        -9.3160   -2.0730    0.8200 hc        1 MOL      0.000091
    154 H72        -9.0210   -3.8750    0.5900 hc        1 MOL      0.000091
    155 H73       -10.0450   -3.8350   -1.6460 hc        1 MOL      0.023690
    156 H74       -10.1530   -2.1460   -1.5840 hc        1 MOL      0.023690
    157 H75       -12.0400   -2.1640   -0.0470 hx        1 MOL      0.090429
    158 H76       -11.6440   -3.7880    0.4970 hx        1 MOL      0.090429
    159 H77       -12.8880   -3.1510   -2.0680 hn        1 MOL      0.222657
    160 H78       -12.2430   -4.6100   -1.8410 hn        1 MOL      0.222657
    161 H79       -13.4460   -4.1220   -0.8830 hn        1 MOL      0.222657
    162 N14        -4.6380   -3.2000   -1.3480 n         1 MOL     -0.496634
    163 C49        -3.4780   -2.9630   -2.1990 c3        1 MOL     -0.011469
    164 C50        -2.2170   -2.5920   -1.4050 c         1 MOL      0.385851
    165 O22        -1.5760   -1.6130   -1.8290 o         1 MOL     -0.567762
    166 C51        -3.3190   -4.0960   -3.2260 c3        1 MOL      0.004995
    167 C52        -4.5200   -4.1610   -4.2430 c3        1 MOL     -0.093030
    168 C53        -4.2490   -5.2260   -5.3080 c         1 MOL      0.661997
    169 O23        -4.4390   -6.3940   -4.8980 o         1 MOL     -0.657272
    170 O24        -3.9140   -4.7900   -6.4530 o         1 MOL     -0.657272
    171 H80        -5.0360   -4.1350   -1.3160 hn        1 MOL      0.314152
    172 H81        -3.6990   -2.0720   -2.7840 h1        1 MOL      0.164329
    173 H82        -3.2460   -5.0580   -2.7220 hc        1 MOL      0.048251
    174 H83        -2.3880   -4.0880   -3.7980 hc        1 MOL      0.048251
    175 H84        -4.6220   -3.1710   -4.7060 hc        1 MOL     -0.021431
    176 H85        -5.4830   -4.4130   -3.8080 hc        1 MOL     -0.021431
    177 N15        -1.8320   -3.2470   -0.3600 n         1 MOL     -0.110476
    178 C54        -2.3510   -4.5960    0.0790 c3        1 MOL     -0.053190
    179 H86        -3.2740   -4.8200   -0.4540 h1        1 MOL      0.033184
    180 H87        -1.6080   -5.3630   -0.1440 h1        1 MOL      0.033184
    181 H88        -2.5450   -4.5800    1.1520 h1        1 MOL      0.033184
    182 H89        -0.9570   -2.9990    0.0860 hn        1 MOL      0.228474
    183 Ca1        -0.3940    0.9040   -1.2120 Ca        1 MOL      1.787530
    184 O25         1.4260   -0.1410   -3.1050 oh        1 MOL     -0.933400
    185 H90         2.2650   -0.5500   -2.8710 ho        1 MOL      0.433048
    186 H91         1.6670    0.6730   -3.5420 ho        1 MOL      0.433048
    187 O26        -2.4560    1.1980   -2.8620 oh        1 MOL     -0.933400
    188 H92        -2.4040    2.0400   -3.3230 ho        1 MOL      0.433048
    189 H93        -2.9250    0.6210   -3.4670 ho        1 MOL      0.433048
    190 O27        -2.9040    0.6510   -0.0210 oh        1 MOL     -0.933400
    191 H94        -3.3780   -0.1810   -0.0010 ho        1 MOL      0.433048
    192 H95        -3.4980    1.2500   -0.4750 ho        1 MOL      0.433048
@<TRIPOS>BOND
     1    1    2 1   
     2    1    4 1   
     3    1    5 1   
     4    1    6 1   
     5    2    3 2   
     6    2    7 1   
     7    7    8 1   
     8    7   15 1   
     9    8    9 1   
    10    8   11 1   
    11    8   16 1   
    12    9   10 2   
    13    9   19 1   
    14   11   12 1   
    15   11   17 1   
    16   11   18 1   
    17   12   13 1   
    18   12   14 1   
    19   19   20 1   
    20   19   28 1   
    21   20   21 1   
    22   20   23 1   
    23   20   29 1   
    24   21   22 2   
    25   21   41 1   
    26   23   24 1   
    27   23   30 1   
    28   23   31 1   
    29   24   25 1   
    30   24   32 1   
    31   24   33 1   
    32   25   26 1   
    33   25   34 1   
    34   25   35 1   
    35   26   27 1   
    36   26   36 1   
    37   26   37 1   
    38   27   38 1   
    39   27   39 1   
    40   27   40 1   
    41   41   42 1   
    42   41   49 1   
    43   42   43 1   
    44   42   45 1   
    45   42   50 1   
    46   43   44 2   
    47   43   53 1   
    48   45   46 1   
    49   45   51 1   
    50   45   52 1   
    51   46   47 1   
    52   46   48 1   
    53   53   54 1   
    54   53   57 1   
    55   54   55 1   
    56   54   58 1   
    57   54   59 1   
    58   55   56 2   
    59   55   60 1   
    60   60   61 1   
    61   60   68 1   
    62   61   62 1   
    63   61   64 1   
    64   61   69 1   
    65   62   63 2   
    66   62   72 1   
    67   64   65 1   
    68   64   70 1   
    69   64   71 1   
    70   65   66 1   
    71   65   67 1   
    72   72   73 1   
    73   72   76 1   
    74   73   74 1   
    75   73   77 1   
    76   73   78 1   
    77   74   75 2   
    78   74   79 1   
    79   79   80 1   
    80   79   86 1   
    81   80   81 1   
    82   80   83 1   
    83   80   87 1   
    84   81   82 2   
    85   81   93 1   
    86   83   84 1   
    87   83   85 1   
    88   83   88 1   
    89   84   90 1   
    90   84   91 1   
    91   84   92 1   
    92   85   89 1   
    93   93   94 1   
    94   93  101 1   
    95   94   95 1   
    96   94   97 1   
    97   94  102 1   
    98   95   96 2   
    99   95  112 1   
   100   97   98 1   
   101   97   99 1   
   102   97  103 1   
   103   98  100 1   
   104   98  104 1   
   105   98  105 1   
   106   99  106 1   
   107   99  107 1   
   108   99  108 1   
   109  100  109 1   
   110  100  110 1   
   111  100  111 1   
   112  112  113 1   
   113  112  119 1   
   114  113  114 1   
   115  113  116 1   
   116  113  120 1   
   117  114  115 2   
   118  114  126 1   
   119  116  117 1   
   120  116  118 1   
   121  116  121 1   
   122  117  123 1   
   123  117  124 1   
   124  117  125 1   
   125  118  122 1   
   126  126  127 1   
   127  126  133 1   
   128  127  128 1   
   129  127  130 1   
   130  127  134 1   
   131  128  129 2   
   132  128  140 1   
   133  130  131 1   
   134  130  132 1   
   135  130  135 1   
   136  131  137 1   
   137  131  138 1   
   138  131  139 1   
   139  132  136 1   
   140  140  141 1   
   141  140  149 1   
   142  141  142 1   
   143  141  144 1   
   144  141  150 1   
   145  142  143 2   
   146  142  162 1   
   147  144  145 1   
   148  144  151 1   
   149  144  152 1   
   150  145  146 1   
   151  145  153 1   
   152  145  154 1   
   153  146  147 1   
   154  146  155 1   
   155  146  156 1   
   156  147  148 1   
   157  147  157 1   
   158  147  158 1   
   159  148  159 1   
   160  148  160 1   
   161  148  161 1   
   162  162  163 1   
   163  162  171 1   
   164  163  164 1   
   165  163  166 1   
   166  163  172 1   
   167  164  165 2   
   168  164  177 1   
   169  166  167 1   
   170  166  173 1   
   171  166  174 1   
   172  167  168 1   
   173  167  175 1   
   174  167  176 1   
   175  168  169 1   
   176  168  170 1   
   177  177  178 1   
   178  177  182 1   
   179  178  179 1   
   180  178  180 1   
   181  178  181 1   
   182  184  185 1   
   183  184  186 1   
   184  187  188 1   
   185  187  189 1   
   186  190  191 1   
   187  190  192 1   
@<TRIPOS>SUBSTRUCTURE
     1 MOL         1 TEMP              0 ****  ****    0 ROOT
