@<TRIPOS>MOLECULE
MOL
  182   178     1     0     0
SMALL
resp


@<TRIPOS>ATOM
      1 C1          1.2740   -4.8670    5.8810 c3        1 MOL     -0.440661
      2 C2          1.2460   -4.4390    4.3960 c         1 MOL      0.733012
      3 O1          0.2300   -4.7000    3.6380 o         1 MOL     -0.637079
      4 H1          1.2240   -5.9540    5.9460 hc        1 MOL      0.129351
      5 H2          2.1980   -4.5180    6.3430 hc        1 MOL      0.129351
      6 H3          0.4210   -4.4330    6.4010 hc        1 MOL      0.129351
      7 N1          2.2530   -3.7530    3.9230 n         1 MOL     -0.463781
      8 C3          2.3950   -3.2130    2.5760 c3        1 MOL     -0.143064
      9 C4          2.7780   -4.3450    1.5560 c         1 MOL      0.590818
     10 O2          3.6000   -5.1720    1.8480 o         1 MOL     -0.512757
     11 C5          3.4850   -2.1620    2.6220 c3        1 MOL     -0.003218
     12 C6          3.5760   -1.2690    1.3620 c         1 MOL      0.131112
     13 O3          3.8770   -0.0620    1.5550 o         1 MOL     -0.564036
     14 O4          3.3480   -1.6800    0.1980 o         1 MOL     -0.564036
     15 H4          3.0250   -3.5560    4.5330 hn        1 MOL      0.291646
     16 H5          1.4240   -2.7720    2.3510 h1        1 MOL      0.066534
     17 H6          4.4340   -2.6860    2.7150 hc        1 MOL      0.080130
     18 H7          3.2150   -1.4810    3.4260 hc        1 MOL      0.080130
     19 N2          2.2010   -4.3600    0.3470 n         1 MOL     -0.282437
     20 C7          2.6000   -5.1620   -0.7520 c3        1 MOL     -0.217998
     21 C8          4.0270   -4.9600   -1.3080 c         1 MOL      0.562464
     22 O5          4.5070   -5.9090   -1.9270 o         1 MOL     -0.551099
     23 C9          1.3970   -5.0160   -1.7340 c3        1 MOL      0.109553
     24 C10         0.1210   -5.7370   -1.2650 c3        1 MOL     -0.052281
     25 C11        -1.0030   -5.5540   -2.3260 c3        1 MOL     -0.009983
     26 C12        -1.5200   -4.1310   -2.4450 c3        1 MOL      0.086549
     27 N3         -2.2490   -3.8840   -3.7280 n4        1 MOL     -0.378755
     28 H8          1.5110   -3.6490    0.1570 hn        1 MOL      0.212815
     29 H9          2.5310   -6.2230   -0.5090 h1        1 MOL      0.138727
     30 H10         1.5930   -5.3260   -2.7530 hc        1 MOL     -0.015608
     31 H11         1.0390   -3.9850   -1.7800 hc        1 MOL     -0.015608
     32 H12        -0.2570   -5.3000   -0.3420 hc        1 MOL      0.035295
     33 H13         0.3310   -6.8090   -1.2050 hc        1 MOL      0.035295
     34 H14        -1.7880   -6.2290   -1.9920 hc        1 MOL      0.033134
     35 H15        -0.5820   -5.9030   -3.2730 hc        1 MOL      0.033134
     36 H16        -0.6590   -3.4560   -2.4980 hx        1 MOL      0.062113
     37 H17        -2.0530   -3.9710   -1.5100 hx        1 MOL      0.062113
     38 H18        -1.7020   -4.0560   -4.5620 hn        1 MOL      0.293981
     39 H19        -3.1550   -4.3190   -3.8190 hn        1 MOL      0.293981
     40 H20        -2.4890   -2.9030   -3.6990 hn        1 MOL      0.293981
     41 N4          4.6790   -3.8260   -1.1320 n         1 MOL     -0.376851
     42 C13         6.0060   -3.4660   -1.6530 c3        1 MOL      0.224540
     43 C14         6.9630   -2.7580   -0.6430 c         1 MOL      0.217826
     44 O6          8.2180   -2.8680   -0.7350 o         1 MOL     -0.477759
     45 C15         5.9160   -2.4950   -2.8280 c3        1 MOL     -0.373402
     46 C16         4.7630   -1.4250   -2.7660 c         1 MOL      0.810665
     47 O7          4.8870   -0.5120   -1.9640 o         1 MOL     -0.748590
     48 O8          3.8090   -1.4350   -3.5600 o         1 MOL     -0.748590
     49 H21         4.2110   -3.1770   -0.5290 hn        1 MOL      0.275560
     50 H22         6.4300   -4.4220   -1.9600 h1        1 MOL      0.079171
     51 H23         5.6750   -3.1020   -3.7010 hc        1 MOL      0.096837
     52 H24         6.8610   -1.9830   -2.9760 hc        1 MOL      0.096837
     53 N5          6.3600   -2.0530    0.3200 n         1 MOL     -0.040872
     54 C17         7.1800   -1.2720    1.3480 c3        1 MOL     -0.217601
     55 C18         7.4700    0.0950    0.8260 c         1 MOL      0.680256
     56 O9          8.3240    0.7290    1.4260 o         1 MOL     -0.572329
     57 H25         5.3500   -2.0080    0.2610 hn        1 MOL      0.075094
     58 H26         8.1190   -1.7920    1.5330 h1        1 MOL      0.124848
     59 H27         6.7170   -1.1640    2.3200 h1        1 MOL      0.124848
     60 N6          6.7600    0.6550   -0.1950 n         1 MOL     -0.470726
     61 C19         7.0010    2.0220   -0.7390 c3        1 MOL     -0.073634
     62 C20         5.7020    2.8920   -0.8530 c         1 MOL      0.728503
     63 O10         4.6520    2.2770   -1.0990 o         1 MOL     -0.685990
     64 C21         7.4600    1.9080   -2.1540 c3        1 MOL     -0.147672
     65 C22         8.7360    1.1240   -2.5310 c         1 MOL      0.605325
     66 N7          8.9540    0.7550   -3.7920 n         1 MOL     -0.803071
     67 O11         9.5900    0.7580   -1.6830 o         1 MOL     -0.491788
     68 H28         6.2260    0.0340   -0.7780 hn        1 MOL      0.415850
     69 H29         7.7340    2.5870   -0.1600 h1        1 MOL      0.078633
     70 H30         7.4850    2.9200   -2.5640 hc        1 MOL      0.042085
     71 H31         6.6550    1.4200   -2.6960 hc        1 MOL      0.042085
     72 H32         8.2060    0.7880   -4.4790 hn        1 MOL      0.368806
     73 H33         9.8320    0.2800   -3.9570 hn        1 MOL      0.368806
     74 N8          5.8030    4.2340   -0.7700 n         1 MOL     -0.460495
     75 C23         4.6330    5.1310   -0.9690 c3        1 MOL     -0.149195
     76 C24         3.6350    5.0860    0.1860 c         1 MOL      0.540511
     77 O12         3.9970    4.7820    1.3660 o         1 MOL     -0.488611
     78 H34         6.7030    4.6650   -0.6390 hn        1 MOL      0.336173
     79 H35         4.1900    4.8890   -1.9340 h1        1 MOL      0.111392
     80 H36         5.0020    6.1480   -0.9870 h1        1 MOL      0.111392
     81 N9          2.3540    5.1540   -0.1400 n         1 MOL     -0.509459
     82 C25         1.2770    4.7990    0.8240 c3        1 MOL      0.190032
     83 C26         1.2890    3.2650    1.2190 c         1 MOL      0.446265
     84 O13         2.1150    2.4900    0.7290 o         1 MOL     -0.475090
     85 C27        -0.1320    5.1200    0.3330 c3        1 MOL     -0.289200
     86 C28        -0.4220    6.6080    0.0290 ca        1 MOL      0.077744
     87 C29        -0.5070    7.4490    1.1400 ca        1 MOL     -0.114463
     88 C30        -0.4860    7.0580   -1.2930 ca        1 MOL     -0.114463
     89 C31        -0.7580    8.7980    0.9790 ca        1 MOL     -0.311065
     90 C32        -0.8210    8.3920   -1.4130 ca        1 MOL     -0.311065
     91 C33        -0.9780    9.2370   -0.3140 ca        1 MOL      0.412608
     92 O14        -1.4790   10.4360   -0.5340 oh        1 MOL     -0.497673
     93 H37         2.1050    5.6330   -0.9970 hn        1 MOL      0.289143
     94 H38         1.3160    5.4130    1.7240 h1        1 MOL      0.036788
     95 H39        -0.7570    4.7480    1.1370 hc        1 MOL      0.068173
     96 H40        -0.3160    4.5650   -0.5810 hc        1 MOL      0.068173
     97 H41        -0.4860    7.1010    2.1650 ha        1 MOL      0.135830
     98 H42        -0.4540    6.4200   -2.1710 ha        1 MOL      0.135830
     99 H43        -0.9870    9.4160    1.8420 ha        1 MOL      0.164223
    100 H44        -0.9780    8.7400   -2.4210 ha        1 MOL      0.164223
    101 H45        -1.6030   10.9530    0.2630 ho        1 MOL      0.387266
    102 N10         0.4800    2.9570    2.2140 n         1 MOL     -0.419204
    103 C34         0.1300    1.6550    2.7810 c3        1 MOL      0.002760
    104 C35        -0.0970    0.4870    1.8070 c         1 MOL      0.227551
    105 O15         0.7710    0.0920    1.0250 o         1 MOL     -0.187669
    106 C36         1.0970    1.2790    3.9320 c3        1 MOL      0.126392
    107 C37         0.8320   -0.1840    4.5140 c3        1 MOL      0.005908
    108 C38         1.1100    2.4360    4.9860 c3        1 MOL     -0.286944
    109 C39        -0.5360   -0.4480    5.1070 c3        1 MOL     -0.238260
    110 H46        -0.0550    3.7030    2.6290 hn        1 MOL      0.303051
    111 H47        -0.7930    1.8160    3.3410 h1        1 MOL      0.069318
    112 H48         2.1140    1.3720    3.5540 hc        1 MOL      0.093763
    113 H49         1.6280   -0.4010    5.2220 hc        1 MOL      0.033080
    114 H50         1.0760   -0.8990    3.7230 hc        1 MOL      0.033080
    115 H51         1.9240    2.1910    5.6690 hc        1 MOL      0.074944
    116 H52         1.4450    3.4000    4.5980 hc        1 MOL      0.074944
    117 H53         0.1610    2.6450    5.4620 hc        1 MOL      0.074944
    118 H54        -0.6450   -0.0240    6.1030 hc        1 MOL      0.058940
    119 H55        -1.4040   -0.2360    4.4870 hc        1 MOL      0.058940
    120 H56        -0.5710   -1.5390    5.1290 hc        1 MOL      0.058940
    121 N11        -1.3190   -0.0530    1.8630 n         1 MOL     -0.434171
    122 C40        -1.7140   -1.2150    1.0540 c3        1 MOL      0.122728
    123 C41        -3.1020   -1.2680    0.3760 c         1 MOL      0.548557
    124 O16        -3.2890   -2.1470   -0.4940 o         1 MOL     -0.579348
    125 C42        -1.6390   -2.4740    1.9820 c3        1 MOL      0.181946
    126 O17        -1.3390   -3.5950    1.2330 oh        1 MOL     -0.517728
    127 H57        -1.9590    0.4980    2.4200 hn        1 MOL      0.300433
    128 H58        -1.0070   -1.4310    0.2580 h1        1 MOL     -0.007093
    129 H59        -2.6790   -2.5850    2.3300 h1        1 MOL      0.011009
    130 H60        -0.9370   -2.3220    2.8060 h1        1 MOL      0.011009
    131 H61        -0.9020   -4.2590    1.7680 ho        1 MOL      0.404191
    132 N12        -4.0940   -0.4350    0.6680 n         1 MOL     -0.468478
    133 C43        -5.3660   -0.3630    0.0560 c3        1 MOL      0.117597
    134 C44        -5.3340    0.2200   -1.3250 c         1 MOL      0.465407
    135 O18        -4.3140    0.8310   -1.7810 o         1 MOL     -0.546155
    136 C45        -6.1080    0.6920    0.9230 c3        1 MOL     -0.013870
    137 H62        -3.9010    0.3000    1.3340 hn        1 MOL      0.241913
    138 H63        -5.7950   -1.3690    0.0430 h1        1 MOL      0.108329
    139 H64        -6.2730    0.2100    1.8880 hc        1 MOL      0.019932
    140 H65        -5.4480    1.5510    1.0630 hc        1 MOL      0.019932
    141 H66        -7.0720    0.8950    0.4530 hc        1 MOL      0.019932
    142 N13        -6.4560    0.1530   -2.0870 n         1 MOL     -0.587550
    143 C46        -7.7350   -0.5510   -1.8480 c3        1 MOL      0.613690
    144 C47        -8.9150    0.4590   -2.1140 c         1 MOL      0.335710
    145 O19        -8.8000    1.1890   -3.1070 o         1 MOL     -0.496258
    146 C48        -7.7590   -1.7960   -2.7230 c3        1 MOL     -0.628990
    147 H67        -6.2010    0.4490   -3.0150 hn        1 MOL      0.305941
    148 H68        -7.8520   -1.0120   -0.8690 h1        1 MOL     -0.070697
    149 H69        -6.8090   -2.2750   -2.4720 hc        1 MOL      0.166411
    150 H70        -8.5680   -2.4680   -2.4260 hc        1 MOL      0.166411
    151 H71        -7.8350   -1.4920   -3.7590 hc        1 MOL      0.166411
    152 N14       -10.0060    0.4030   -1.2450 n         1 MOL     -0.475905
    153 C49       -10.3270   -0.4460   -0.1170 c3        1 MOL     -0.009346
    154 C50        -9.8230    0.2520    1.1610 c         1 MOL      0.417053
    155 O20        -9.4740   -0.3910    2.1460 o         1 MOL     -0.508171
    156 C51       -11.8300   -0.7120   -0.0390 c3        1 MOL      0.061242
    157 C52       -12.2730   -1.6760   -1.1790 c3        1 MOL     -0.271174
    158 C53       -13.8610   -1.8430   -1.1380 c         1 MOL      0.685870
    159 O21       -14.4900   -1.6760   -2.2160 o         1 MOL     -0.661300
    160 O22       -14.3770   -2.3450   -0.0870 o         1 MOL     -0.661300
    161 H72       -10.7530    1.0490   -1.4860 hn        1 MOL      0.349679
    162 H73        -9.7990   -1.3940   -0.2930 h1        1 MOL      0.088243
    163 H74       -12.3120    0.2560   -0.1180 hc        1 MOL      0.015928
    164 H75       -12.0480   -1.2010    0.9100 hc        1 MOL      0.015928
    165 H76       -11.7870   -2.6460   -1.0710 hc        1 MOL      0.058816
    166 H77       -11.9740   -1.0750   -2.0470 hc        1 MOL      0.058816
    167 N15        -9.6330    1.5790    1.0950 n         1 MOL     -0.192805
    168 C54        -9.2080    2.4300    2.2420 c3        1 MOL     -0.354392
    169 H78        -9.9840    2.4200    3.0080 h1        1 MOL      0.139293
    170 H79        -8.2810    2.0400    2.6610 h1        1 MOL      0.139293
    171 H80        -9.0510    3.4530    1.8980 h1        1 MOL      0.139293
    172 H81        -9.9920    2.0940    0.3050 hn        1 MOL      0.205858
    173 Ca1         2.7010    0.4690   -0.9290 Ca        1 MOL      1.797308
    174 O23         0.5140    1.9170   -1.8430 oh        1 MOL     -0.872995
    175 H82        -0.4280    1.9570   -1.6910 ho        1 MOL      0.415713
    176 H83         0.7420    2.7790   -2.2050 ho        1 MOL      0.415713
    177 O24         2.6470    0.7370   -3.5530 oh        1 MOL     -0.872995
    178 H84         3.3040    0.1110   -3.8430 ho        1 MOL      0.415713
    179 H85         2.0940    0.8710   -4.3210 ho        1 MOL      0.415713
    180 O25         0.8050   -1.2670   -1.8130 oh        1 MOL     -0.872995
    181 H86         0.8460   -1.8690   -2.5540 ho        1 MOL      0.415713
    182 H87        -0.0830   -0.8990   -1.8640 ho        1 MOL      0.415713
@<TRIPOS>BOND
     1    1    2 1   
     2    1    4 1   
     3    1    5 1   
     4    1    6 1   
     5    2    3 2   
     6    2    7 1   
     7    7    8 1   
     8    7   15 1   
     9    8    9 1   
    10    8   11 1   
    11    8   16 1   
    12    9   10 2   
    13    9   19 1   
    14   11   12 1   
    15   11   17 1   
    16   11   18 1   
    17   12   13 1   
    18   12   14 1   
    19   19   20 1   
    20   19   28 1   
    21   20   21 1   
    22   20   23 1   
    23   20   29 1   
    24   21   22 2   
    25   21   41 1   
    26   23   24 1   
    27   23   30 1   
    28   23   31 1   
    29   24   25 1   
    30   24   32 1   
    31   24   33 1   
    32   25   26 1   
    33   25   34 1   
    34   25   35 1   
    35   26   27 1   
    36   26   36 1   
    37   26   37 1   
    38   27   38 1   
    39   27   39 1   
    40   27   40 1   
    41   41   42 1   
    42   41   49 1   
    43   42   43 1   
    44   42   45 1   
    45   42   50 1   
    46   43   44 2   
    47   43   53 1   
    48   45   46 1   
    49   45   51 1   
    50   45   52 1   
    51   46   47 1   
    52   46   48 1   
    53   53   54 1   
    54   53   57 1   
    55   54   55 1   
    56   54   58 1   
    57   54   59 1   
    58   55   56 2   
    59   55   60 1   
    60   60   61 1   
    61   60   68 1   
    62   61   62 1   
    63   61   64 1   
    64   61   69 1   
    65   62   63 2   
    66   62   74 1   
    67   64   65 1   
    68   64   70 1   
    69   64   71 1   
    70   65   66 1   
    71   65   67 2   
    72   66   72 1   
    73   66   73 1   
    74   74   75 1   
    75   74   78 1   
    76   75   76 1   
    77   75   79 1   
    78   75   80 1   
    79   76   77 2   
    80   76   81 1   
    81   81   82 1   
    82   81   93 1   
    83   82   83 1   
    84   82   85 1   
    85   82   94 1   
    86   83   84 2   
    87   83  102 1   
    88   85   86 1   
    89   85   95 1   
    90   85   96 1   
    91   86   87 ar  
    92   86   88 ar  
    93   87   89 ar  
    94   87   97 1   
    95   88   90 ar  
    96   88   98 1   
    97   89   91 ar  
    98   89   99 1   
    99   90   91 ar  
   100   90  100 1   
   101   91   92 1   
   102   92  101 1   
   103  102  103 1   
   104  102  110 1   
   105  103  104 1   
   106  103  106 1   
   107  103  111 1   
   108  104  105 2   
   109  104  121 1   
   110  106  107 1   
   111  106  108 1   
   112  106  112 1   
   113  107  109 1   
   114  107  113 1   
   115  107  114 1   
   116  108  115 1   
   117  108  116 1   
   118  108  117 1   
   119  109  118 1   
   120  109  119 1   
   121  109  120 1   
   122  121  122 1   
   123  121  127 1   
   124  122  123 1   
   125  122  125 1   
   126  122  128 1   
   127  123  124 2   
   128  123  132 1   
   129  125  126 1   
   130  125  129 1   
   131  125  130 1   
   132  126  131 1   
   133  132  133 1   
   134  132  137 1   
   135  133  134 1   
   136  133  136 1   
   137  133  138 1   
   138  134  135 2   
   139  134  142 1   
   140  136  139 1   
   141  136  140 1   
   142  136  141 1   
   143  142  143 1   
   144  142  147 1   
   145  143  144 1   
   146  143  146 1   
   147  143  148 1   
   148  144  145 2   
   149  144  152 1   
   150  146  149 1   
   151  146  150 1   
   152  146  151 1   
   153  152  153 1   
   154  152  161 1   
   155  153  154 1   
   156  153  156 1   
   157  153  162 1   
   158  154  155 2   
   159  154  167 1   
   160  156  157 1   
   161  156  163 1   
   162  156  164 1   
   163  157  158 1   
   164  157  165 1   
   165  157  166 1   
   166  158  159 1   
   167  158  160 1   
   168  167  168 1   
   169  167  172 1   
   170  168  169 1   
   171  168  170 1   
   172  168  171 1   
   173  174  175 1   
   174  174  176 1   
   175  177  178 1   
   176  177  179 1   
   177  180  181 1   
   178  180  182 1   
@<TRIPOS>SUBSTRUCTURE
     1 MOL         1 TEMP              0 ****  ****    0 ROOT
