@<TRIPOS>MOLECULE
MOL
  195   189     1     0     0
SMALL
resp


@<TRIPOS>ATOM
      1 C1          3.9170    2.6420    5.7300 c3        1 MOL     -0.332191
      2 C2          3.8880    2.2220    4.2530 c         1 MOL      0.698900
      3 O1          3.2930    2.9170    3.4250 o         1 MOL     -0.589626
      4 H1          4.2890    3.6630    5.8090 hc        1 MOL      0.091542
      5 H2          2.9090    2.5900    6.1430 hc        1 MOL      0.091542
      6 H3          4.5730    1.9720    6.2850 hc        1 MOL      0.091542
      7 N1          4.4400    1.0650    3.9380 n         1 MOL     -0.558904
      8 C3          4.3760    0.4110    2.6360 c3        1 MOL      0.022052
      9 C4          2.9860   -0.1020    2.2290 c         1 MOL      0.382305
     10 O2          2.6250   -0.4470    1.0790 o         1 MOL     -0.566657
     11 C5          5.3330   -0.7680    2.6050 c3        1 MOL     -0.334868
     12 C6          5.1590   -1.7380    3.7420 c         1 MOL      0.639737
     13 O3          5.5990   -1.4060    4.8430 o         1 MOL     -0.681348
     14 O4          4.5590   -2.8390    3.5210 o         1 MOL     -0.681348
     15 H4          4.7800    0.5270    4.7160 hn        1 MOL      0.322412
     16 H5          4.7310    1.0710    1.8490 h1        1 MOL      0.138332
     17 H6          6.3850   -0.5070    2.5350 hc        1 MOL      0.129474
     18 H7          5.1290   -1.2720    1.6650 hc        1 MOL      0.129474
     19 N2          2.0280   -0.0280    3.1080 n         1 MOL     -0.048414
     20 C7          0.5650   -0.2580    3.0530 c3        1 MOL      0.000739
     21 C8         -0.1730    1.0820    3.0250 c         1 MOL      0.358099
     22 O5          0.1990    2.0110    3.7660 o         1 MOL     -0.534663
     23 C9          0.1320   -1.1270    4.2510 c3        1 MOL     -0.221164
     24 C10         0.8680   -2.4680    4.4300 c3        1 MOL     -0.007136
     25 C11         1.0470   -3.2870    3.1300 c3        1 MOL      0.040508
     26 C12         1.3010   -4.7200    3.5320 c3        1 MOL      0.034339
     27 N3          1.8180   -5.5560    2.4480 n4        1 MOL     -0.314915
     28 H8          2.2220    0.3700    4.0190 hn        1 MOL      0.186045
     29 H9          0.3400   -0.8270    2.1480 h1        1 MOL      0.264557
     30 H10        -0.9120   -1.4400    4.2710 hc        1 MOL      0.089320
     31 H11         0.3840   -0.6190    5.1830 hc        1 MOL      0.089320
     32 H12         0.4070   -3.0680    5.2040 hc        1 MOL      0.015801
     33 H13         1.8980   -2.2780    4.7480 hc        1 MOL      0.015801
     34 H14         1.8650   -2.9300    2.5000 hc        1 MOL     -0.000178
     35 H15         0.1690   -3.3000    2.4760 hc        1 MOL     -0.000178
     36 H16         0.3670   -5.1650    3.8840 hx        1 MOL      0.064394
     37 H17         1.9980   -4.7970    4.3710 hx        1 MOL      0.064394
     38 H18         2.5430   -5.0220    1.9830 hn        1 MOL      0.307545
     39 H19         2.2060   -6.4300    2.7510 hn        1 MOL      0.307545
     40 H20         1.0770   -5.7320    1.7920 hn        1 MOL      0.307545
     41 N4         -1.2440    1.2510    2.2310 n         1 MOL     -0.324423
     42 C13        -1.6970    0.3720    1.1200 c3        1 MOL     -0.014443
     43 C14        -1.8620   -1.1710    1.3550 c         1 MOL      0.217363
     44 O6         -1.1290   -2.0530    0.8250 o         1 MOL     -0.612307
     45 C15        -0.8590    0.7750   -0.1330 c3        1 MOL      0.104773
     46 C16        -0.6180    2.2630   -0.2710 c         1 MOL      0.575282
     47 O7         -1.2630    3.1500    0.3670 o         1 MOL     -0.670774
     48 O8          0.2400    2.5950   -1.0860 o         1 MOL     -0.670774
     49 H21        -1.6270    2.1770    2.3120 hn        1 MOL      0.268578
     50 H22        -2.6780    0.7190    0.7770 h1        1 MOL      0.057223
     51 H23        -1.4940    0.4640   -0.9580 hc        1 MOL      0.010684
     52 H24         0.0650    0.2030   -0.1500 hc        1 MOL      0.010684
     53 N5         -2.6610   -1.5970    2.3230 n         1 MOL     -0.184494
     54 C17        -3.7710   -0.6860    2.7370 c3        1 MOL     -0.119745
     55 C18        -4.9850   -1.2840    3.4170 c         1 MOL      0.564912
     56 O9         -5.0160   -2.3450    4.0450 o         1 MOL     -0.580530
     57 H25        -2.7150   -2.5470    2.6550 hn        1 MOL      0.250575
     58 H26        -4.0750   -0.3130    1.7590 h1        1 MOL      0.096115
     59 H27        -3.3220    0.0840    3.3720 h1        1 MOL      0.096115
     60 N6         -6.0960   -0.5940    3.4390 n         1 MOL     -0.426479
     61 C19        -6.3810    0.8050    2.9650 c3        1 MOL      0.027743
     62 C20        -7.2330    0.8590    1.6290 c         1 MOL      0.555218
     63 O10        -7.5060   -0.2270    1.0070 o         1 MOL     -0.460737
     64 C21        -6.9720    1.5510    4.1520 c3        1 MOL     -0.268450
     65 C22        -8.2600    0.9270    4.7530 c         1 MOL      0.764911
     66 O11        -8.8700    1.6200    5.5510 o         1 MOL     -0.653615
     67 O12        -8.7420   -0.1110    4.3580 o         1 MOL     -0.653615
     68 H28        -6.8440   -1.0240    3.9600 hn        1 MOL      0.308271
     69 H29        -5.4570    1.3320    2.6820 h1        1 MOL      0.023701
     70 H30        -7.0470    2.6230    3.9720 hc        1 MOL      0.050788
     71 H31        -6.3120    1.4070    5.0080 hc        1 MOL      0.050788
     72 N7         -7.4560    2.1000    1.1080 n         1 MOL     -0.363775
     73 C23        -8.3960    2.3930    0.0490 c3        1 MOL     -0.173864
     74 C24        -8.1500    1.6180   -1.3010 c         1 MOL      0.479048
     75 O13        -9.0620    1.1310   -2.0060 o         1 MOL     -0.531201
     76 H32        -6.9970    2.8990    1.5240 hn        1 MOL      0.285112
     77 H33        -8.4590    3.4710   -0.1620 h1        1 MOL      0.116846
     78 H34        -9.3840    2.1420    0.4380 h1        1 MOL      0.116846
     79 N8         -6.8640    1.4190   -1.4980 n         1 MOL     -0.394005
     80 C25        -6.2210    0.5330   -2.4790 c3        1 MOL      0.177930
     81 C26        -5.1150   -0.2160   -1.7940 c         1 MOL      0.431871
     82 O14        -4.4690    0.3200   -0.8520 o         1 MOL     -0.574112
     83 C27        -5.7180    1.3870   -3.6170 c3        1 MOL      0.233496
     84 C28        -6.9160    1.7260   -4.5400 c3        1 MOL     -0.370149
     85 O15        -4.9320    0.6550   -4.4930 oh        1 MOL     -0.621243
     86 H35        -6.3290    2.0510   -0.9140 hn        1 MOL      0.211080
     87 H36        -6.8540   -0.1800   -2.9990 h1        1 MOL      0.092383
     88 H37        -5.1660    2.2720   -3.3130 h1        1 MOL      0.039538
     89 H38        -4.0180    0.9560   -4.3830 ho        1 MOL      0.399199
     90 H39        -6.6600    2.3890   -5.3680 hc        1 MOL      0.107233
     91 H40        -7.5540    0.8870   -4.8090 hc        1 MOL      0.107233
     92 H41        -7.5510    2.4150   -3.9820 hc        1 MOL      0.107233
     93 N9         -4.7590   -1.4060   -2.2680 n         1 MOL     -0.338584
     94 C29        -3.9180   -2.3560   -1.5280 c3        1 MOL     -0.092793
     95 C30        -2.6740   -2.9910   -2.2360 c         1 MOL      0.565125
     96 O16        -1.9540   -3.7880   -1.6620 o         1 MOL     -0.532137
     97 C31        -4.7670   -3.5240   -0.9920 c3        1 MOL      0.147323
     98 C32        -5.6410   -4.2620   -2.0230 c3        1 MOL      0.130568
     99 C33        -5.6070   -3.1170    0.2170 c3        1 MOL     -0.343587
    100 C34        -4.8290   -4.8810   -3.1030 c3        1 MOL     -0.035115
    101 H42        -5.0870   -1.7800   -3.1500 hn        1 MOL      0.277357
    102 H43        -3.5360   -1.8320   -0.6480 h1        1 MOL      0.243515
    103 H44        -4.1020   -4.2780   -0.5690 hc        1 MOL     -0.000247
    104 H45        -6.2920   -3.4710   -2.4140 hc        1 MOL     -0.038901
    105 H46        -6.2660   -5.0060   -1.5300 hc        1 MOL     -0.038901
    106 H47        -4.8550   -2.8040    0.9510 hc        1 MOL      0.089188
    107 H48        -6.1630   -2.2080   -0.0090 hc        1 MOL      0.089188
    108 H49        -6.2530   -3.8950    0.6150 hc        1 MOL      0.089188
    109 H50        -4.5560   -4.2290   -3.9330 hc        1 MOL     -0.006856
    110 H51        -3.9710   -5.4830   -2.7910 hc        1 MOL     -0.006856
    111 H52        -5.4830   -5.4840   -3.7390 hc        1 MOL     -0.006856
    112 N10        -2.4140   -2.4900   -3.4240 n         1 MOL     -0.296233
    113 C35        -1.0210   -2.5360   -4.0120 c3        1 MOL     -0.489758
    114 C36         0.0210   -1.6930   -3.2370 c         1 MOL      0.574651
    115 O17        -0.0980   -0.4690   -3.0500 o         1 MOL     -0.433964
    116 C37        -0.9870   -2.1500   -5.4790 c3        1 MOL      0.462848
    117 C38        -1.4830   -0.7690   -5.7870 c3        1 MOL     -0.522184
    118 O18        -1.7550   -3.0900   -6.2310 oh        1 MOL     -0.613680
    119 H53        -3.0260   -1.7340   -3.7270 hn        1 MOL      0.183041
    120 H54        -0.7720   -3.5950   -3.8990 h1        1 MOL      0.204573
    121 H55         0.0320   -2.2610   -5.8560 h1        1 MOL      0.071531
    122 H56        -2.6510   -2.7890   -6.0340 ho        1 MOL      0.382249
    123 H57        -2.4140   -0.7320   -5.2200 hc        1 MOL      0.149894
    124 H58        -0.7000   -0.0520   -5.5510 hc        1 MOL      0.149894
    125 H59        -1.6390   -0.5430   -6.8400 hc        1 MOL      0.149894
    126 N11         0.9970   -2.4590   -2.7300 n         1 MOL     -0.589967
    127 C39         2.0450   -2.1050   -1.8270 c3        1 MOL      0.020634
    128 C40         3.2880   -1.7280   -2.6100 c         1 MOL      0.696479
    129 O19         3.3810   -1.8740   -3.8110 o         1 MOL     -0.557562
    130 C41         2.3070   -3.1820   -0.8180 c3        1 MOL      0.489793
    131 C42         2.5790   -4.5420   -1.4920 c3        1 MOL     -1.074061
    132 O20         1.1210   -3.3540   -0.1620 oh        1 MOL     -0.718856
    133 H60         0.9050   -3.4460   -2.9210 hn        1 MOL      0.341441
    134 H61         1.7250   -1.1940   -1.3180 h1        1 MOL      0.025373
    135 H62         3.1430   -2.8600   -0.1930 h1        1 MOL      0.039125
    136 H63         0.5690   -2.5670   -0.1820 ho        1 MOL      0.588000
    137 H64         2.5970   -4.4290   -2.5770 hc        1 MOL      0.287588
    138 H65         3.5350   -4.8360   -1.0530 hc        1 MOL      0.287588
    139 H66         1.7230   -5.1810   -1.2590 hc        1 MOL      0.287588
    140 N12         4.3380   -1.2920   -1.8760 n         1 MOL     -0.589390
    141 C43         5.6910   -1.1120   -2.3740 c3        1 MOL      0.153947
    142 C44         6.3060    0.2430   -2.2180 c         1 MOL      0.554620
    143 O21         7.4240    0.3960   -2.7680 o         1 MOL     -0.598875
    144 C45         6.6230   -2.2490   -1.9360 c3        1 MOL     -0.258548
    145 C46         6.8080   -2.4890   -0.4630 c3        1 MOL      0.521075
    146 C47         7.7660   -3.5650   -0.0110 c3        1 MOL     -0.135743
    147 C48         7.1000   -4.9370   -0.2080 c3        1 MOL      0.251263
    148 N13         7.8990   -6.1060    0.1040 n4        1 MOL     -0.316382
    149 H67         4.2310   -1.2810   -0.8670 hn        1 MOL      0.268796
    150 H68         5.6470   -1.1210   -3.4650 h1        1 MOL      0.107947
    151 H69         7.5930   -2.0480   -2.4060 hc        1 MOL      0.042939
    152 H70         6.2330   -3.2030   -2.2930 hc        1 MOL      0.042939
    153 H71         5.8360   -2.8740   -0.1290 hc        1 MOL     -0.158104
    154 H72         7.0150   -1.5730    0.0920 hc        1 MOL     -0.158104
    155 H73         7.9290   -3.4310    1.0540 hc        1 MOL      0.043726
    156 H74         8.7340   -3.4580   -0.5110 hc        1 MOL      0.043726
    157 H75         6.8570   -5.0490   -1.2670 hx        1 MOL     -0.035622
    158 H76         6.1130   -4.9080    0.2470 hx        1 MOL     -0.035622
    159 H77         8.4160   -6.0190    0.9590 hn        1 MOL      0.269086
    160 H78         7.2750   -6.8780    0.2960 hn        1 MOL      0.269086
    161 H79         8.5410   -6.4110   -0.6170 hn        1 MOL      0.269086
    162 N14         5.7230    1.2770   -1.6840 n         1 MOL     -0.412252
    163 C49         6.3640    2.6300   -1.4960 c3        1 MOL     -0.049056
    164 C50         7.2120    2.5840   -0.2320 c         1 MOL      0.562752
    165 O22         6.7680    2.0690    0.8010 o         1 MOL     -0.492563
    166 C51         5.2740    3.7290   -1.5750 c3        1 MOL     -0.456445
    167 C52         4.4840    3.7900   -2.9010 c3        1 MOL      0.157298
    168 C53         3.3990    4.8910   -2.9520 c         1 MOL      0.640350
    169 O23         2.5540    4.9870   -2.0360 o         1 MOL     -0.726195
    170 O24         3.3480    5.6370   -3.9750 o         1 MOL     -0.726195
    171 H80         4.8660    1.0640   -1.1900 hn        1 MOL      0.287817
    172 H81         7.0980    2.8060   -2.2830 h1        1 MOL      0.115286
    173 H82         5.7770    4.6970   -1.4680 hc        1 MOL      0.128550
    174 H83         4.5520    3.5890   -0.7700 hc        1 MOL      0.128550
    175 H84         3.9810    2.8530   -3.1380 hc        1 MOL      0.010240
    176 H85         5.0990    4.0580   -3.7580 hc        1 MOL      0.010240
    177 N15         8.4810    3.0080   -0.2960 n         1 MOL     -0.365372
    178 C54         9.4970    2.9180    0.7700 c3        1 MOL     -0.114960
    179 H86         9.3820    3.7610    1.4530 h1        1 MOL      0.086829
    180 H87         9.3670    1.9850    1.3180 h1        1 MOL      0.086829
    181 H88        10.4920    2.9450    0.3260 h1        1 MOL      0.086829
    182 H89         8.8020    3.2380   -1.2300 hn        1 MOL      0.271448
    183 Ca1         0.4050    5.2280   -0.7380 Ca        1 MOL      1.756326
    184 O25         1.6130    4.2560    1.4330 oh        1 MOL     -0.875567
    185 H90         2.2380    3.5740    1.6800 ho        1 MOL      0.424483
    186 H91         1.1660    4.4920    2.2380 ho        1 MOL      0.424483
    187 O26        -2.2450    5.6880   -0.5650 oh        1 MOL     -0.875567
    188 H92        -2.8460    5.9490    0.1370 ho        1 MOL      0.424483
    189 H93        -2.8150    5.5060   -1.3130 ho        1 MOL      0.424483
    190 O27        -0.3810    4.4860   -3.2630 oh        1 MOL     -0.875567
    191 H94        -0.5790    5.3640   -3.5710 ho        1 MOL      0.424483
    192 H95        -0.5150    3.9180   -4.0260 ho        1 MOL      0.424483
    193 O28         2.6560    6.7400    0.0070 oh        1 MOL     -0.875567
    194 H96         2.9370    7.6620   -0.0110 ho        1 MOL      0.424483
    195 H97         3.3660    6.2650   -0.4230 ho        1 MOL      0.424483
@<TRIPOS>BOND
     1    1    2 1   
     2    1    4 1   
     3    1    5 1   
     4    1    6 1   
     5    2    3 2   
     6    2    7 1   
     7    7    8 1   
     8    7   15 1   
     9    8    9 1   
    10    8   11 1   
    11    8   16 1   
    12    9   10 2   
    13    9   19 1   
    14   11   12 1   
    15   11   17 1   
    16   11   18 1   
    17   12   13 1   
    18   12   14 1   
    19   19   20 1   
    20   19   28 1   
    21   20   21 1   
    22   20   23 1   
    23   20   29 1   
    24   21   22 2   
    25   21   41 1   
    26   23   24 1   
    27   23   30 1   
    28   23   31 1   
    29   24   25 1   
    30   24   32 1   
    31   24   33 1   
    32   25   26 1   
    33   25   34 1   
    34   25   35 1   
    35   26   27 1   
    36   26   36 1   
    37   26   37 1   
    38   27   38 1   
    39   27   39 1   
    40   27   40 1   
    41   41   42 1   
    42   41   49 1   
    43   42   43 1   
    44   42   45 1   
    45   42   50 1   
    46   43   44 2   
    47   43   53 1   
    48   45   46 1   
    49   45   51 1   
    50   45   52 1   
    51   46   47 1   
    52   46   48 1   
    53   53   54 1   
    54   53   57 1   
    55   54   55 1   
    56   54   58 1   
    57   54   59 1   
    58   55   56 2   
    59   55   60 1   
    60   60   61 1   
    61   60   68 1   
    62   61   62 1   
    63   61   64 1   
    64   61   69 1   
    65   62   63 2   
    66   62   72 1   
    67   64   65 1   
    68   64   70 1   
    69   64   71 1   
    70   65   66 1   
    71   65   67 1   
    72   72   73 1   
    73   72   76 1   
    74   73   74 1   
    75   73   77 1   
    76   73   78 1   
    77   74   75 2   
    78   74   79 1   
    79   79   80 1   
    80   79   86 1   
    81   80   81 1   
    82   80   83 1   
    83   80   87 1   
    84   81   82 2   
    85   81   93 1   
    86   83   84 1   
    87   83   85 1   
    88   83   88 1   
    89   84   90 1   
    90   84   91 1   
    91   84   92 1   
    92   85   89 1   
    93   93   94 1   
    94   93  101 1   
    95   94   95 1   
    96   94   97 1   
    97   94  102 1   
    98   95   96 2   
    99   95  112 1   
   100   97   98 1   
   101   97   99 1   
   102   97  103 1   
   103   98  100 1   
   104   98  104 1   
   105   98  105 1   
   106   99  106 1   
   107   99  107 1   
   108   99  108 1   
   109  100  109 1   
   110  100  110 1   
   111  100  111 1   
   112  112  113 1   
   113  112  119 1   
   114  113  114 1   
   115  113  116 1   
   116  113  120 1   
   117  114  115 2   
   118  114  126 1   
   119  116  117 1   
   120  116  118 1   
   121  116  121 1   
   122  117  123 1   
   123  117  124 1   
   124  117  125 1   
   125  118  122 1   
   126  126  127 1   
   127  126  133 1   
   128  127  128 1   
   129  127  130 1   
   130  127  134 1   
   131  128  129 2   
   132  128  140 1   
   133  130  131 1   
   134  130  132 1   
   135  130  135 1   
   136  131  137 1   
   137  131  138 1   
   138  131  139 1   
   139  132  136 1   
   140  140  141 1   
   141  140  149 1   
   142  141  142 1   
   143  141  144 1   
   144  141  150 1   
   145  142  143 2   
   146  142  162 1   
   147  144  145 1   
   148  144  151 1   
   149  144  152 1   
   150  145  146 1   
   151  145  153 1   
   152  145  154 1   
   153  146  147 1   
   154  146  155 1   
   155  146  156 1   
   156  147  148 1   
   157  147  157 1   
   158  147  158 1   
   159  148  159 1   
   160  148  160 1   
   161  148  161 1   
   162  162  163 1   
   163  162  171 1   
   164  163  164 1   
   165  163  166 1   
   166  163  172 1   
   167  164  165 2   
   168  164  177 1   
   169  166  167 1   
   170  166  173 1   
   171  166  174 1   
   172  167  168 1   
   173  167  175 1   
   174  167  176 1   
   175  168  169 1   
   176  168  170 1   
   177  177  178 1   
   178  177  182 1   
   179  178  179 1   
   180  178  180 1   
   181  178  181 1   
   182  184  185 1   
   183  184  186 1   
   184  187  188 1   
   185  187  189 1   
   186  190  191 1   
   187  190  192 1   
   188  193  194 1   
   189  193  195 1   
@<TRIPOS>SUBSTRUCTURE
     1 MOL         1 TEMP              0 ****  ****    0 ROOT
