@<TRIPOS>MOLECULE
MOL
  198   191     1     0     0
SMALL
resp


@<TRIPOS>ATOM
      1 C1         -4.0480    7.9450    5.3730 c3        1 MOL     -0.386911
      2 C2         -4.5250    7.4800    3.9880 c         1 MOL      0.729557
      3 O1         -5.6620    7.0410    3.8390 o         1 MOL     -0.605737
      4 H1         -4.8000    7.6880    6.1200 hc        1 MOL      0.099225
      5 H2         -3.1080    7.4510    5.6190 hc        1 MOL      0.099225
      6 H3         -3.9000    9.0250    5.3630 hc        1 MOL      0.099225
      7 N1         -3.6840    7.5880    2.9480 n         1 MOL     -0.581193
      8 C3         -3.9810    6.9620    1.6490 c3        1 MOL      0.207407
      9 C4         -3.7520    5.4070    1.5920 c         1 MOL      0.558567
     10 O2         -2.8700    4.8890    2.2140 o         1 MOL     -0.511526
     11 C5         -3.3220    7.6880    0.4710 c3        1 MOL     -0.187903
     12 C6         -3.2770    9.2080    0.5810 c         1 MOL      0.700538
     13 O3         -4.2040    9.9190    0.1520 o         1 MOL     -0.624033
     14 O4         -2.2630    9.7680    1.0620 o         1 MOL     -0.624033
     15 H4         -2.7780    8.0200    3.0920 hn        1 MOL      0.308434
     16 H5         -5.0520    7.0340    1.5170 h1        1 MOL      0.026934
     17 H6         -3.7640    7.3300   -0.4600 hc        1 MOL      0.021145
     18 H7         -2.2760    7.3690    0.4470 hc        1 MOL      0.021145
     19 N2         -4.6080    4.6790    0.8220 n         1 MOL     -0.544548
     20 C7         -4.5160    3.1910    0.5920 c3        1 MOL      0.001820
     21 C8         -3.3230    2.8820   -0.3500 c         1 MOL      0.642244
     22 O5         -3.4850    3.0880   -1.5240 o         1 MOL     -0.596021
     23 C9         -5.7980    2.6590   -0.1870 c3        1 MOL      0.067043
     24 C10        -7.0200    2.7770    0.7400 c3        1 MOL     -0.024027
     25 C11        -8.3350    2.3160    0.0610 c3        1 MOL     -0.097601
     26 C12        -8.2910    0.8520   -0.4290 c3        1 MOL      0.221844
     27 N3         -9.3310    0.5200   -1.4030 n4        1 MOL     -0.539237
     28 H8         -5.3670    5.1340    0.3460 hn        1 MOL      0.302110
     29 H9         -4.4180    2.6020    1.5060 h1        1 MOL      0.076347
     30 H10        -5.6020    1.6120   -0.4180 hc        1 MOL      0.012225
     31 H11        -5.9980    3.2110   -1.0970 hc        1 MOL      0.012225
     32 H12        -7.1680    3.8120    1.0660 hc        1 MOL      0.022142
     33 H13        -6.8060    2.0870    1.5500 hc        1 MOL      0.022142
     34 H14        -8.6510    2.9920   -0.7260 hc        1 MOL      0.034609
     35 H15        -9.1340    2.2570    0.8020 hc        1 MOL      0.034609
     36 H16        -8.2630    0.1280    0.3810 hx        1 MOL      0.029880
     37 H17        -7.3380    0.6200   -0.9130 hx        1 MOL      0.029880
     38 H18        -9.0390   -0.1130   -2.1390 hn        1 MOL      0.332445
     39 H19       -10.1410    0.3590   -0.8300 hn        1 MOL      0.332445
     40 H20        -9.4360    1.3370   -1.9830 hn        1 MOL      0.332445
     41 N4         -2.1850    2.4440    0.2400 n         1 MOL     -0.671952
     42 C13        -0.8760    2.1650   -0.4120 c3        1 MOL      0.740406
     43 C14        -0.3820    0.7690    0.0050 c         1 MOL      0.423258
     44 O6          0.1620    0.6440    1.1060 o         1 MOL     -0.521972
     45 C15         0.0240    3.2600    0.1410 c3        1 MOL     -0.874846
     46 C16         1.4330    3.2170   -0.5280 c         1 MOL      0.858685
     47 O7          2.3230    3.9320    0.0070 o         1 MOL     -0.723730
     48 O8          1.7380    2.4370   -1.4420 o         1 MOL     -0.723730
     49 H21        -2.2490    2.4190    1.2450 hn        1 MOL      0.325061
     50 H22        -0.8330    2.1940   -1.5010 h1        1 MOL     -0.052987
     51 H23         0.0150    3.1180    1.2220 hc        1 MOL      0.215077
     52 H24        -0.3390    4.2680   -0.0660 hc        1 MOL      0.215077
     53 N5         -0.6220   -0.2850   -0.7890 n         1 MOL     -0.515248
     54 C17        -1.5130   -0.3630   -2.0100 c3        1 MOL      0.016557
     55 C18        -3.0520   -0.4950   -1.7640 c         1 MOL      0.526979
     56 O9         -3.5120   -0.5280   -0.6380 o         1 MOL     -0.492026
     57 H25        -0.2610   -1.1650   -0.4450 hn        1 MOL      0.367551
     58 H26        -1.1720   -1.2360   -2.5630 h1        1 MOL      0.066846
     59 H27        -1.3150    0.4230   -2.7400 h1        1 MOL      0.066846
     60 N6         -3.7970   -0.4510   -2.8940 n         1 MOL     -0.595644
     61 C19        -5.1560   -1.0440   -2.9100 c3        1 MOL      0.071047
     62 C20        -5.0940   -2.5390   -3.2170 c         1 MOL      0.464669
     63 O10        -4.4000   -2.9460   -4.1660 o         1 MOL     -0.523041
     64 C21        -5.9170   -0.3470   -3.9970 c3        1 MOL      0.068103
     65 C22        -7.2590   -1.1160   -4.1390 c         1 MOL      0.438818
     66 O11        -7.5260   -1.7180   -5.2060 o         1 MOL     -0.604026
     67 O12        -8.0270   -1.1510   -3.1240 o         1 MOL     -0.604026
     68 H28        -3.3920   -0.3840   -3.8220 hn        1 MOL      0.319113
     69 H29        -5.5500   -0.9140   -1.9040 h1        1 MOL      0.038987
     70 H30        -5.3610   -0.4050   -4.9250 hc        1 MOL      0.004406
     71 H31        -6.0650    0.7150   -3.7700 hc        1 MOL      0.004406
     72 N7         -5.9160   -3.2840   -2.5290 n         1 MOL     -0.172610
     73 C23        -5.9850   -4.8050   -2.6460 c3        1 MOL     -0.088675
     74 C24        -5.5030   -5.6920   -1.4930 c         1 MOL      0.570256
     75 O13        -5.1400   -6.8110   -1.7900 o         1 MOL     -0.535765
     76 H32        -6.5210   -2.9430   -1.7940 hn        1 MOL      0.183270
     77 H33        -5.3710   -5.0770   -3.4980 h1        1 MOL      0.089101
     78 H34        -7.0520   -5.0050   -2.7460 h1        1 MOL      0.089101
     79 N8         -5.3660   -5.1610   -0.2500 n         1 MOL     -0.476021
     80 C25        -4.7630   -5.8250    0.9340 c3        1 MOL      0.010679
     81 C26        -3.8940   -4.8500    1.6780 c         1 MOL      0.645033
     82 O14        -4.0320   -3.6340    1.5540 o         1 MOL     -0.502543
     83 C27        -5.9170   -6.3090    1.8070 c3        1 MOL      0.336614
     84 C28        -6.7800   -7.4080    1.2210 c3        1 MOL     -0.491373
     85 O15        -5.4610   -6.8350    3.0320 oh        1 MOL     -0.664193
     86 H35        -5.4010   -4.1490   -0.2490 hn        1 MOL      0.224882
     87 H36        -4.1470   -6.6780    0.6740 h1        1 MOL      0.097572
     88 H37        -6.4960   -5.4230    2.0770 h1        1 MOL      0.011625
     89 H38        -6.1130   -7.1660    3.6480 ho        1 MOL      0.425705
     90 H39        -7.6320   -7.4680    1.8920 hc        1 MOL      0.132567
     91 H40        -7.1230   -7.2070    0.2010 hc        1 MOL      0.132567
     92 H41        -6.3170   -8.3960    1.2930 hc        1 MOL      0.132567
     93 N9         -2.8360   -5.3310    2.3320 n         1 MOL     -0.672946
     94 C29        -1.8730   -4.4090    2.8620 c3        1 MOL      0.227968
     95 C30        -0.9380   -3.9600    1.8000 c         1 MOL      0.395477
     96 O16        -0.8240   -2.7380    1.5400 o         1 MOL     -0.515303
     97 C31        -1.1220   -5.1010    4.0450 c3        1 MOL      0.040906
     98 C32        -1.9920   -5.6050    5.2020 c3        1 MOL      0.017192
     99 C33        -0.1200   -4.1300    4.6750 c3        1 MOL     -0.303105
    100 C34        -2.9980   -4.5180    5.6590 c3        1 MOL     -0.272422
    101 H42        -2.6100   -6.3080    2.3880 hn        1 MOL      0.338436
    102 H43        -2.3340   -3.4750    3.1780 h1        1 MOL      0.100636
    103 H44        -0.4900   -5.9300    3.7120 hc        1 MOL     -0.002953
    104 H45        -1.4200   -5.8820    6.0870 hc        1 MOL      0.017784
    105 H46        -2.5110   -6.5120    4.9070 hc        1 MOL      0.017784
    106 H47         0.6750   -4.0260    3.9310 hc        1 MOL      0.087934
    107 H48        -0.5670   -3.1860    5.0010 hc        1 MOL      0.087934
    108 H49         0.3710   -4.6200    5.5200 hc        1 MOL      0.087934
    109 H50        -3.8580   -4.4410    4.9970 hc        1 MOL      0.074119
    110 H51        -3.2710   -4.8280    6.6690 hc        1 MOL      0.074119
    111 H52        -2.5920   -3.5100    5.5930 hc        1 MOL      0.074119
    112 N10        -0.2430   -4.8640    1.1270 n         1 MOL     -0.278072
    113 C35         0.8160   -4.5220    0.1970 c3        1 MOL     -0.047868
    114 C36         2.1320   -5.2070    0.5610 c         1 MOL      0.608464
    115 O17         2.1940   -6.0960    1.4020 o         1 MOL     -0.533437
    116 C37         0.4040   -4.8970   -1.2630 c3        1 MOL      0.343937
    117 C38        -0.9790   -4.2890   -1.6510 c3        1 MOL     -0.394795
    118 O18         1.2750   -4.1610   -2.1470 oh        1 MOL     -0.590827
    119 H53        -0.3310   -5.8200    1.4070 hn        1 MOL      0.200248
    120 H54         0.8610   -3.4240    0.1910 h1        1 MOL      0.094764
    121 H55         0.4970   -5.9650   -1.4420 h1        1 MOL      0.004985
    122 H56         1.4950   -4.7450   -2.8760 ho        1 MOL      0.379816
    123 H57        -1.1620   -3.2660   -1.3230 hc        1 MOL      0.112737
    124 H58        -1.1100   -4.2750   -2.7360 hc        1 MOL      0.112737
    125 H59        -1.6290   -5.0280   -1.1930 hc        1 MOL      0.112737
    126 N11         3.2800   -4.9020   -0.0710 n         1 MOL     -0.582121
    127 C39         4.6170   -5.5150    0.0660 c3        1 MOL      0.186728
    128 C40         5.6220   -4.4070    0.5300 c         1 MOL      0.595615
    129 O19         6.3190   -4.7050    1.4850 o         1 MOL     -0.554489
    130 C41         5.2300   -6.0360   -1.2150 c3        1 MOL      0.167599
    131 C42         6.6300   -6.6110   -1.2220 c3        1 MOL     -0.250391
    132 O20         5.0810   -5.2230   -2.3370 oh        1 MOL     -0.652544
    133 H60         3.1390   -4.2240   -0.8040 hn        1 MOL      0.264552
    134 H61         4.4810   -6.3190    0.7860 h1        1 MOL      0.078092
    135 H62         4.5800   -6.8890   -1.4340 h1        1 MOL      0.027650
    136 H63         5.3990   -5.6580   -3.1280 ho        1 MOL      0.435914
    137 H64         7.2830   -5.7590   -1.0270 hc        1 MOL      0.073247
    138 H65         6.7240   -7.3100   -0.3890 hc        1 MOL      0.073247
    139 H66         6.8930   -7.1220   -2.1470 hc        1 MOL      0.073247
    140 N12         5.7070   -3.1610   -0.1080 n         1 MOL     -0.496409
    141 C43         6.6410   -2.1950    0.3480 c3        1 MOL      0.066918
    142 C44         6.3770   -0.8000   -0.0760 c         1 MOL      0.520085
    143 O21         5.7510   -0.6130   -1.1430 o         1 MOL     -0.503750
    144 C45         8.0320   -2.5770   -0.2220 c3        1 MOL     -0.410316
    145 C46         9.2520   -2.3780    0.7380 c3        1 MOL     -0.026836
    146 C47        10.5020   -2.2080   -0.0670 c3        1 MOL      0.028219
    147 C48        11.7890   -2.3700    0.7100 c3        1 MOL      0.016409
    148 N13        12.8300   -1.7120   -0.1040 n4        1 MOL     -0.151521
    149 H67         5.0690   -2.9140   -0.8540 hn        1 MOL      0.322510
    150 H68         6.6240   -2.2390    1.4360 h1        1 MOL      0.086099
    151 H69         8.2540   -2.2150   -1.2350 hc        1 MOL      0.156466
    152 H70         8.0840   -3.6480   -0.4210 hc        1 MOL      0.156466
    153 H71         9.4130   -3.2620    1.3550 hc        1 MOL      0.045419
    154 H72         9.0810   -1.4870    1.3350 hc        1 MOL      0.045419
    155 H73        10.5270   -1.2590   -0.6120 hc        1 MOL      0.006634
    156 H74        10.4460   -2.9260   -0.8870 hc        1 MOL      0.006634
    157 H75        12.0270   -3.3990    0.9630 hx        1 MOL      0.081694
    158 H76        11.5860   -1.8910    1.6670 hx        1 MOL      0.081694
    159 H77        12.7350   -0.7150   -0.2560 hn        1 MOL      0.193221
    160 H78        13.7570   -1.8280    0.2790 hn        1 MOL      0.193221
    161 H79        13.0250   -2.1140   -1.0080 hn        1 MOL      0.193221
    162 N14         6.6650    0.1460    0.7730 n         1 MOL     -0.316322
    163 C49         6.5440    1.6350    0.4990 c3        1 MOL      0.072021
    164 C50         5.0720    2.0050    0.1790 c         1 MOL      0.034525
    165 O22         4.7360    2.4170   -0.9020 o         1 MOL     -0.396353
    166 C51         7.0970    2.5230    1.6390 c3        1 MOL     -0.421136
    167 C52         7.2100    4.0680    1.3080 c3        1 MOL      0.261357
    168 C53         5.9360    4.9090    1.3520 c         1 MOL      0.583535
    169 O23         5.2580    4.9350    0.3360 o         1 MOL     -0.667249
    170 O24         5.6680    5.5550    2.4100 o         1 MOL     -0.667249
    171 H80         7.1980   -0.1210    1.5960 hn        1 MOL      0.231071
    172 H81         7.1290    1.8790   -0.3910 h1        1 MOL      0.060031
    173 H82         8.1050    2.1450    1.8120 hc        1 MOL      0.128132
    174 H83         6.5720    2.3360    2.5650 hc        1 MOL      0.128132
    175 H84         7.6630    4.3340    0.3550 hc        1 MOL     -0.088401
    176 H85         7.9510    4.4750    1.9990 hc        1 MOL     -0.088401
    177 N15         4.0730    1.6730    0.9830 n         1 MOL      0.078200
    178 C54         3.9860    0.9530    2.2950 c3        1 MOL     -0.212130
    179 H86         2.9640    1.0000    2.6690 h1        1 MOL      0.092111
    180 H87         4.2750   -0.0890    2.1580 h1        1 MOL      0.092111
    181 H88         4.6570    1.4240    3.0140 h1        1 MOL      0.092111
    182 H89         3.1680    1.8110    0.5600 hn        1 MOL      0.209661
    183 Ca1         3.9180    4.7480   -1.8860 Ca        1 MOL      1.750988
    184 O25         6.4860    4.1410   -2.5940 oh        1 MOL     -0.875958
    185 H90         7.1440    3.6190   -2.1460 ho        1 MOL      0.434005
    186 H91         6.9250    4.9600   -2.7970 ho        1 MOL      0.434005
    187 O26         3.1550    7.1830   -1.0940 oh        1 MOL     -0.875958
    188 H92         3.7960    7.8270   -0.7890 ho        1 MOL      0.434005
    189 H93         2.3730    7.6940   -1.2710 ho        1 MOL      0.434005
    190 O27         4.2610    3.2110   -3.9160 oh        1 MOL     -0.875958
    191 H94         5.1840    3.3380   -4.1190 ho        1 MOL      0.434005
    192 H95         3.9360    2.6180   -4.5950 ho        1 MOL      0.434005
    193 O28         1.6040    5.3260   -3.1140 oh        1 MOL     -0.875958
    194 H96         1.2030    6.1530   -2.8530 ho        1 MOL      0.434005
    195 H97         1.0050    4.9660   -3.7770 ho        1 MOL      0.434005
    196 O29         4.8140    6.4790   -3.6320 oh        1 MOL     -0.875958
    197 H98         5.4120    7.2250   -3.7090 ho        1 MOL      0.434005
    198 H99         4.2040    6.5780   -4.3570 ho        1 MOL      0.434005
@<TRIPOS>BOND
     1    1    2 1   
     2    1    4 1   
     3    1    5 1   
     4    1    6 1   
     5    2    3 2   
     6    2    7 1   
     7    7    8 1   
     8    7   15 1   
     9    8    9 1   
    10    8   11 1   
    11    8   16 1   
    12    9   10 2   
    13    9   19 1   
    14   11   12 1   
    15   11   17 1   
    16   11   18 1   
    17   12   13 1   
    18   12   14 1   
    19   19   20 1   
    20   19   28 1   
    21   20   21 1   
    22   20   23 1   
    23   20   29 1   
    24   21   22 2   
    25   21   41 1   
    26   23   24 1   
    27   23   30 1   
    28   23   31 1   
    29   24   25 1   
    30   24   32 1   
    31   24   33 1   
    32   25   26 1   
    33   25   34 1   
    34   25   35 1   
    35   26   27 1   
    36   26   36 1   
    37   26   37 1   
    38   27   38 1   
    39   27   39 1   
    40   27   40 1   
    41   41   42 1   
    42   41   49 1   
    43   42   43 1   
    44   42   45 1   
    45   42   50 1   
    46   43   44 2   
    47   43   53 1   
    48   45   46 1   
    49   45   51 1   
    50   45   52 1   
    51   46   47 1   
    52   46   48 1   
    53   53   54 1   
    54   53   57 1   
    55   54   55 1   
    56   54   58 1   
    57   54   59 1   
    58   55   56 2   
    59   55   60 1   
    60   60   61 1   
    61   60   68 1   
    62   61   62 1   
    63   61   64 1   
    64   61   69 1   
    65   62   63 2   
    66   62   72 1   
    67   64   65 1   
    68   64   70 1   
    69   64   71 1   
    70   65   66 1   
    71   65   67 1   
    72   72   73 1   
    73   72   76 1   
    74   73   74 1   
    75   73   77 1   
    76   73   78 1   
    77   74   75 2   
    78   74   79 1   
    79   79   80 1   
    80   79   86 1   
    81   80   81 1   
    82   80   83 1   
    83   80   87 1   
    84   81   82 2   
    85   81   93 1   
    86   83   84 1   
    87   83   85 1   
    88   83   88 1   
    89   84   90 1   
    90   84   91 1   
    91   84   92 1   
    92   85   89 1   
    93   93   94 1   
    94   93  101 1   
    95   94   95 1   
    96   94   97 1   
    97   94  102 1   
    98   95   96 2   
    99   95  112 1   
   100   97   98 1   
   101   97   99 1   
   102   97  103 1   
   103   98  100 1   
   104   98  104 1   
   105   98  105 1   
   106   99  106 1   
   107   99  107 1   
   108   99  108 1   
   109  100  109 1   
   110  100  110 1   
   111  100  111 1   
   112  112  113 1   
   113  112  119 1   
   114  113  114 1   
   115  113  116 1   
   116  113  120 1   
   117  114  115 2   
   118  114  126 1   
   119  116  117 1   
   120  116  118 1   
   121  116  121 1   
   122  117  123 1   
   123  117  124 1   
   124  117  125 1   
   125  118  122 1   
   126  126  127 1   
   127  126  133 1   
   128  127  128 1   
   129  127  130 1   
   130  127  134 1   
   131  128  129 2   
   132  128  140 1   
   133  130  131 1   
   134  130  132 1   
   135  130  135 1   
   136  131  137 1   
   137  131  138 1   
   138  131  139 1   
   139  132  136 1   
   140  140  141 1   
   141  140  149 1   
   142  141  142 1   
   143  141  144 1   
   144  141  150 1   
   145  142  143 2   
   146  142  162 1   
   147  144  145 1   
   148  144  151 1   
   149  144  152 1   
   150  145  146 1   
   151  145  153 1   
   152  145  154 1   
   153  146  147 1   
   154  146  155 1   
   155  146  156 1   
   156  147  148 1   
   157  147  157 1   
   158  147  158 1   
   159  148  159 1   
   160  148  160 1   
   161  148  161 1   
   162  162  163 1   
   163  162  171 1   
   164  163  164 1   
   165  163  166 1   
   166  163  172 1   
   167  164  165 2   
   168  164  177 1   
   169  166  167 1   
   170  166  173 1   
   171  166  174 1   
   172  167  168 1   
   173  167  175 1   
   174  167  176 1   
   175  168  169 1   
   176  168  170 1   
   177  177  178 1   
   178  177  182 1   
   179  178  179 1   
   180  178  180 1   
   181  178  181 1   
   182  184  185 1   
   183  184  186 1   
   184  187  188 1   
   185  187  189 1   
   186  190  191 1   
   187  190  192 1   
   188  193  194 1   
   189  193  195 1   
   190  196  197 1   
   191  196  198 1   
@<TRIPOS>SUBSTRUCTURE
     1 MOL         1 TEMP              0 ****  ****    0 ROOT
