@<TRIPOS>MOLECULE
MOL
  182   178     1     0     0
SMALL
resp


@<TRIPOS>ATOM
      1 C1         -0.4670   -2.9740    6.6960 c3        1 MOL     -0.459918
      2 C2         -0.4470   -2.9630    5.1620 c         1 MOL      0.791100
      3 O1         -1.4010   -2.6900    4.4120 o         1 MOL     -0.627003
      4 H1          0.1180   -2.1350    7.0730 hc        1 MOL      0.131469
      5 H2         -1.4950   -2.8870    7.0480 hc        1 MOL      0.131469
      6 H3         -0.0360   -3.9070    7.0590 hc        1 MOL      0.131469
      7 N1          0.7630   -3.1480    4.5990 n         1 MOL     -0.615572
      8 C3          1.0060   -3.1370    3.1440 c3        1 MOL     -0.006014
      9 C4          0.6800   -4.4370    2.3360 c         1 MOL      0.601633
     10 O2          0.7420   -5.5710    2.8020 o         1 MOL     -0.536966
     11 C5          2.4890   -2.7100    2.9790 c3        1 MOL     -0.038420
     12 C6          2.7410   -1.9090    1.6610 c         1 MOL      0.265868
     13 O3          3.5970   -0.9890    1.6660 o         1 MOL     -0.572477
     14 O4          2.1000   -2.1290    0.6460 o         1 MOL     -0.572477
     15 H4          1.5650   -3.3530    5.1690 hn        1 MOL      0.319201
     16 H5          0.2990   -2.3740    2.8040 h1        1 MOL     -0.029099
     17 H6          3.0340   -3.6570    2.9270 hc        1 MOL      0.083113
     18 H7          2.8690   -2.1690    3.8500 hc        1 MOL      0.083113
     19 N2          0.3600   -4.2050    1.0340 n         1 MOL     -0.357114
     20 C7          0.0870   -5.2150   -0.0530 c3        1 MOL     -0.085749
     21 C8          1.3450   -5.5300   -0.9040 c         1 MOL      0.513010
     22 O5          1.4350   -6.5750   -1.5420 o         1 MOL     -0.555486
     23 C9         -1.0190   -4.8360   -0.9480 c3        1 MOL     -0.146630
     24 C10        -0.7710   -3.5120   -1.7840 c3        1 MOL      0.534078
     25 C11        -1.9770   -3.0850   -2.6580 c3        1 MOL     -0.305152
     26 C12        -2.2970   -4.2000   -3.5700 c3        1 MOL      0.228181
     27 N3         -1.3580   -4.2490   -4.6850 n4        1 MOL     -0.326695
     28 H8          0.2990   -3.2120    0.8620 hn        1 MOL      0.333770
     29 H9         -0.1840   -6.1410    0.4650 h1        1 MOL      0.120010
     30 H10        -1.8860   -4.5850   -0.3230 hc        1 MOL      0.049482
     31 H11        -1.2000   -5.6550   -1.6320 hc        1 MOL      0.049482
     32 H12         0.1030   -3.7790   -2.3870 hc        1 MOL     -0.213999
     33 H13        -0.4620   -2.6730   -1.1550 hc        1 MOL     -0.213999
     34 H14        -1.7660   -2.1530   -3.1690 hc        1 MOL      0.064834
     35 H15        -2.8290   -2.9480   -1.9930 hc        1 MOL      0.064834
     36 H16        -3.3040   -3.9340   -3.8860 hx        1 MOL      0.042256
     37 H17        -2.4830   -5.1710   -3.1130 hx        1 MOL      0.042256
     38 H18        -1.7840   -4.2720   -5.6030 hn        1 MOL      0.265090
     39 H19        -0.6900   -3.4950   -4.6190 hn        1 MOL      0.265090
     40 H20        -0.8210   -5.1010   -4.6580 hn        1 MOL      0.265090
     41 N4          2.3420   -4.6370   -0.8840 n         1 MOL     -0.206826
     42 C13         3.6560   -4.9300   -1.5220 c3        1 MOL     -0.038852
     43 C14         4.9440   -4.5870   -0.7130 c         1 MOL      0.438400
     44 O6          6.0130   -4.9950   -1.1020 o         1 MOL     -0.522098
     45 C15         3.6890   -4.2250   -2.9450 c3        1 MOL     -0.161611
     46 C16         3.6730   -2.7370   -2.8790 c         1 MOL      0.811079
     47 O7          3.4460   -2.0190   -3.8920 o         1 MOL     -0.737337
     48 O8          3.9200   -2.2340   -1.7670 o         1 MOL     -0.737337
     49 H21         2.2170   -3.8790   -0.2410 hn        1 MOL      0.116294
     50 H22         3.7180   -6.0080   -1.6540 h1        1 MOL      0.132591
     51 H23         2.8450   -4.5580   -3.5430 hc        1 MOL      0.046702
     52 H24         4.5610   -4.5190   -3.5200 hc        1 MOL      0.046702
     53 N5          4.7840   -4.0850    0.5050 n         1 MOL     -0.134615
     54 C17         5.8740   -3.6470    1.3570 c3        1 MOL     -0.389734
     55 C18         6.6020   -2.3400    1.0780 c         1 MOL      0.698900
     56 O9          7.3910   -1.9120    1.9400 o         1 MOL     -0.580411
     57 H25         3.8250   -3.8040    0.7040 hn        1 MOL      0.094993
     58 H26         6.6170   -4.4470    1.3080 h1        1 MOL      0.160314
     59 H27         5.4460   -3.5900    2.3640 h1        1 MOL      0.160314
     60 N6          6.3890   -1.7370   -0.1300 n         1 MOL     -0.396866
     61 C19         7.2370   -0.6110   -0.5050 c3        1 MOL     -0.041981
     62 C20         6.4850    0.6980   -0.0560 c         1 MOL      0.509465
     63 O10         5.2670    0.8350   -0.1520 o         1 MOL     -0.482651
     64 C21         7.6070   -0.7230   -1.9640 c3        1 MOL     -0.396315
     65 C22         8.4750    0.4520   -2.4720 c         1 MOL      0.651203
     66 N7          9.7500    0.3770   -2.2250 n         1 MOL     -0.761439
     67 O11         8.0050    1.5270   -2.8740 o         1 MOL     -0.571577
     68 H28         5.6210   -2.0220   -0.7180 hn        1 MOL      0.340096
     69 H29         8.1690   -0.7270    0.0500 h1        1 MOL      0.074755
     70 H30         6.7800   -1.0120   -2.6070 hc        1 MOL      0.149686
     71 H31         8.2400   -1.6020   -2.0680 hc        1 MOL      0.149686
     72 H32        10.0530   -0.4350   -1.7070 hn        1 MOL      0.373871
     73 H33        10.2720    1.2160   -2.4190 hn        1 MOL      0.373871
     74 N8          7.3200    1.6910    0.2510 n         1 MOL     -0.321570
     75 C23         6.9790    3.1500    0.3490 c3        1 MOL     -0.109032
     76 C24         5.6540    3.6270    0.9960 c         1 MOL      0.605004
     77 O12         5.4060    3.5390    2.2010 o         1 MOL     -0.501242
     78 H34         8.3180    1.5340    0.2170 hn        1 MOL      0.281934
     79 H35         7.0160    3.5190   -0.6760 h1        1 MOL      0.086165
     80 H36         7.8000    3.5320    0.9440 h1        1 MOL      0.086165
     81 N9          4.6490    4.0760    0.2270 n         1 MOL     -0.629966
     82 C25         3.2740    4.4420    0.6770 c3        1 MOL      0.110668
     83 C26         2.3520    3.2120    1.0110 c         1 MOL      0.789988
     84 O13         2.6840    2.1020    0.7060 o         1 MOL     -0.535212
     85 C27         2.6120    5.3040   -0.3790 c3        1 MOL     -0.338607
     86 C28         3.1140    6.6920   -0.5720 ca        1 MOL      0.231762
     87 C29         4.0870    6.9320   -1.5640 ca        1 MOL     -0.224516
     88 C30         2.5280    7.7960    0.0910 ca        1 MOL     -0.224516
     89 C31         4.5300    8.2790   -1.8470 ca        1 MOL     -0.230191
     90 C32         2.9550    9.1120   -0.2450 ca        1 MOL     -0.230191
     91 C33         3.9280    9.3940   -1.2350 ca        1 MOL      0.296038
     92 O14         4.3230   10.6990   -1.5050 oh        1 MOL     -0.448444
     93 H37         4.7730    4.1300   -0.7730 hn        1 MOL      0.329140
     94 H38         3.3800    5.0400    1.5790 h1        1 MOL      0.105307
     95 H39         1.5340    5.3570   -0.2040 hc        1 MOL      0.091202
     96 H40         2.7200    4.7290   -1.2990 hc        1 MOL      0.091202
     97 H41         4.5940    6.0770   -1.9970 ha        1 MOL      0.142572
     98 H42         2.0430    7.6050    1.0380 ha        1 MOL      0.142572
     99 H43         5.3490    8.4510   -2.5320 ha        1 MOL      0.154721
    100 H44         2.6710    9.9550    0.3660 ha        1 MOL      0.154721
    101 H45         4.9140   10.6680   -2.2590 ho        1 MOL      0.349336
    102 N10         1.2280    3.3270    1.7750 n         1 MOL     -0.865323
    103 C34         0.4150    2.1980    2.4600 c3        1 MOL      0.231628
    104 C35        -0.1910    1.1310    1.4780 c         1 MOL      0.618732
    105 O15         0.4700    0.3450    0.8020 o         1 MOL     -0.487142
    106 C36         1.3200    1.4750    3.5620 c3        1 MOL      0.167213
    107 C37         0.6450    0.4610    4.4910 c3        1 MOL     -0.065748
    108 C38         1.9870    2.5880    4.4410 c3        1 MOL     -0.144247
    109 C39        -0.5090    0.9840    5.3840 c3        1 MOL     -0.315510
    110 H46         1.0460    4.2460    2.1470 hn        1 MOL      0.349391
    111 H47        -0.3560    2.7020    3.0360 h1        1 MOL      0.062787
    112 H48         2.1900    0.9970    3.1000 hc        1 MOL      0.021472
    113 H49         1.3590   -0.0910    5.0950 hc        1 MOL      0.073444
    114 H50         0.1770   -0.2480    3.7990 hc        1 MOL      0.073444
    115 H51         1.2320    3.1330    5.0040 hc        1 MOL      0.031276
    116 H52         2.7790    2.1790    5.0670 hc        1 MOL      0.031276
    117 H53         2.5550    3.3300    3.8570 hc        1 MOL      0.031276
    118 H54        -1.2890    1.3690    4.7280 hc        1 MOL      0.075749
    119 H55        -0.9670    0.1750    5.9470 hc        1 MOL      0.075749
    120 H56        -0.0710    1.7620    6.0180 hc        1 MOL      0.075749
    121 N11        -1.5430    1.0240    1.4420 n         1 MOL     -0.660381
    122 C40        -2.2460   -0.0400    0.6820 c3        1 MOL     -0.082599
    123 C41        -3.6630    0.4470    0.4060 c         1 MOL      0.604240
    124 O16        -4.3840    0.9070    1.3370 o         1 MOL     -0.525033
    125 C42        -2.3470   -1.3110    1.5890 c3        1 MOL      0.256646
    126 O17        -2.6780   -2.4190    0.7760 oh        1 MOL     -0.702687
    127 H57        -2.1520    1.6240    1.9690 hn        1 MOL      0.312051
    128 H58        -1.7820   -0.3370   -0.2560 h1        1 MOL      0.158664
    129 H59        -3.0950   -1.2650    2.3790 h1        1 MOL      0.069497
    130 H60        -1.3410   -1.4930    1.9740 h1        1 MOL      0.069497
    131 H61        -2.7760   -3.1880    1.3570 ho        1 MOL      0.442980
    132 N12        -4.0460    0.0660   -0.7630 n         1 MOL     -0.435563
    133 C43        -5.3320    0.3960   -1.4000 c3        1 MOL      0.054254
    134 C44        -5.7440   -0.7740   -2.3040 c         1 MOL      0.612422
    135 O18        -4.9880   -1.2080   -3.1560 o         1 MOL     -0.556652
    136 C45        -5.0900    1.6310   -2.2270 c3        1 MOL     -0.152226
    137 H62        -3.2830   -0.2030   -1.3840 hn        1 MOL      0.232400
    138 H63        -6.0170    0.5560   -0.5680 h1        1 MOL      0.110867
    139 H64        -4.4290    1.4370   -3.0660 hc        1 MOL      0.056355
    140 H65        -5.9720    2.1400   -2.6000 hc        1 MOL      0.056355
    141 H66        -4.6570    2.3910   -1.5770 hc        1 MOL      0.056355
    142 N13        -6.9890   -1.2880   -2.3240 n         1 MOL     -0.592746
    143 C46        -8.1760   -0.7530   -1.6360 c3        1 MOL      0.154333
    144 C47        -8.7820    0.4470   -2.3620 c         1 MOL      0.627193
    145 O19        -8.4900    0.7300   -3.5130 o         1 MOL     -0.559510
    146 C48        -9.2240   -1.8710   -1.5300 c3        1 MOL     -0.164847
    147 H67        -7.1920   -1.9360   -3.0680 hn        1 MOL      0.341494
    148 H68        -7.8970   -0.5270   -0.6050 h1        1 MOL      0.078799
    149 H69        -8.8610   -2.6290   -0.8500 hc        1 MOL      0.067452
    150 H70       -10.2330   -1.5840   -1.2210 hc        1 MOL      0.067452
    151 H71        -9.3670   -2.4990   -2.4150 hc        1 MOL      0.067452
    152 N14        -9.6120    1.2440   -1.7210 n         1 MOL     -0.754102
    153 C49       -10.0700    1.2290   -0.3160 c3        1 MOL      0.144324
    154 C50        -9.2760    2.2540    0.5300 c         1 MOL      0.465478
    155 O20        -8.8900    1.8910    1.6360 o         1 MOL     -0.517712
    156 C51       -11.5530    1.5020   -0.2820 c3        1 MOL      0.208078
    157 C52       -12.2550    1.0590    1.0610 c3        1 MOL     -0.237065
    158 C53       -13.6970    0.6370    0.7210 c         1 MOL      0.686574
    159 O21       -14.0090   -0.5970    0.7270 o         1 MOL     -0.652324
    160 O22       -14.5840    1.5000    0.4490 o         1 MOL     -0.652324
    161 H72       -10.0620    1.9560   -2.2800 hn        1 MOL      0.351292
    162 H73        -9.7360    0.2450    0.0250 h1        1 MOL      0.022087
    163 H74       -12.0450    1.0470   -1.1360 hc        1 MOL     -0.028513
    164 H75       -11.6470    2.5860   -0.3870 hc        1 MOL     -0.028513
    165 H76       -12.2100    1.8140    1.8430 hc        1 MOL      0.036306
    166 H77       -11.6990    0.2020    1.4460 hc        1 MOL      0.036306
    167 N15        -8.9730    3.4760    0.0600 n         1 MOL     -0.271752
    168 C54        -8.2790    4.5160    0.6890 c3        1 MOL     -0.261586
    169 H78        -7.6920    4.1140    1.5150 h1        1 MOL      0.113744
    170 H79        -7.6150    4.9970   -0.0290 h1        1 MOL      0.113744
    171 H80        -8.9900    5.2480    1.0730 h1        1 MOL      0.113744
    172 H81        -9.5080    3.8260   -0.7190 hn        1 MOL      0.255276
    173 Ca1         2.6990   -0.1120   -0.7340 Ca        1 MOL      1.715551
    174 O23         0.7820   -0.6250   -2.5190 oh        1 MOL     -0.859593
    175 H82         0.5340   -1.4200   -2.9840 ho        1 MOL      0.412838
    176 H83        -0.0070   -0.0890   -2.4990 ho        1 MOL      0.412838
    177 O24         3.7900    0.4410   -3.0960 oh        1 MOL     -0.859593
    178 H84         3.7150   -0.3750   -3.5800 ho        1 MOL      0.412838
    179 H85         3.6850    1.1290   -3.7580 ho        1 MOL      0.412838
    180 O25         1.4980    2.0710   -2.0940 oh        1 MOL     -0.859593
    181 H86         1.7750    2.1930   -3.0050 ho        1 MOL      0.412838
    182 H87         0.7680    2.6890   -1.9810 ho        1 MOL      0.412838
@<TRIPOS>BOND
     1    1    2 1   
     2    1    4 1   
     3    1    5 1   
     4    1    6 1   
     5    2    3 2   
     6    2    7 1   
     7    7    8 1   
     8    7   15 1   
     9    8    9 1   
    10    8   11 1   
    11    8   16 1   
    12    9   10 2   
    13    9   19 1   
    14   11   12 1   
    15   11   17 1   
    16   11   18 1   
    17   12   13 1   
    18   12   14 1   
    19   19   20 1   
    20   19   28 1   
    21   20   21 1   
    22   20   23 1   
    23   20   29 1   
    24   21   22 2   
    25   21   41 1   
    26   23   24 1   
    27   23   30 1   
    28   23   31 1   
    29   24   25 1   
    30   24   32 1   
    31   24   33 1   
    32   25   26 1   
    33   25   34 1   
    34   25   35 1   
    35   26   27 1   
    36   26   36 1   
    37   26   37 1   
    38   27   38 1   
    39   27   39 1   
    40   27   40 1   
    41   41   42 1   
    42   41   49 1   
    43   42   43 1   
    44   42   45 1   
    45   42   50 1   
    46   43   44 2   
    47   43   53 1   
    48   45   46 1   
    49   45   51 1   
    50   45   52 1   
    51   46   47 1   
    52   46   48 1   
    53   53   54 1   
    54   53   57 1   
    55   54   55 1   
    56   54   58 1   
    57   54   59 1   
    58   55   56 2   
    59   55   60 1   
    60   60   61 1   
    61   60   68 1   
    62   61   62 1   
    63   61   64 1   
    64   61   69 1   
    65   62   63 2   
    66   62   74 1   
    67   64   65 1   
    68   64   70 1   
    69   64   71 1   
    70   65   66 1   
    71   65   67 2   
    72   66   72 1   
    73   66   73 1   
    74   74   75 1   
    75   74   78 1   
    76   75   76 1   
    77   75   79 1   
    78   75   80 1   
    79   76   77 2   
    80   76   81 1   
    81   81   82 1   
    82   81   93 1   
    83   82   83 1   
    84   82   85 1   
    85   82   94 1   
    86   83   84 2   
    87   83  102 1   
    88   85   86 1   
    89   85   95 1   
    90   85   96 1   
    91   86   87 ar  
    92   86   88 ar  
    93   87   89 ar  
    94   87   97 1   
    95   88   90 ar  
    96   88   98 1   
    97   89   91 ar  
    98   89   99 1   
    99   90   91 ar  
   100   90  100 1   
   101   91   92 1   
   102   92  101 1   
   103  102  103 1   
   104  102  110 1   
   105  103  104 1   
   106  103  106 1   
   107  103  111 1   
   108  104  105 2   
   109  104  121 1   
   110  106  107 1   
   111  106  108 1   
   112  106  112 1   
   113  107  109 1   
   114  107  113 1   
   115  107  114 1   
   116  108  115 1   
   117  108  116 1   
   118  108  117 1   
   119  109  118 1   
   120  109  119 1   
   121  109  120 1   
   122  121  122 1   
   123  121  127 1   
   124  122  123 1   
   125  122  125 1   
   126  122  128 1   
   127  123  124 2   
   128  123  132 1   
   129  125  126 1   
   130  125  129 1   
   131  125  130 1   
   132  126  131 1   
   133  132  133 1   
   134  132  137 1   
   135  133  134 1   
   136  133  136 1   
   137  133  138 1   
   138  134  135 2   
   139  134  142 1   
   140  136  139 1   
   141  136  140 1   
   142  136  141 1   
   143  142  143 1   
   144  142  147 1   
   145  143  144 1   
   146  143  146 1   
   147  143  148 1   
   148  144  145 2   
   149  144  152 1   
   150  146  149 1   
   151  146  150 1   
   152  146  151 1   
   153  152  153 1   
   154  152  161 1   
   155  153  154 1   
   156  153  156 1   
   157  153  162 1   
   158  154  155 2   
   159  154  167 1   
   160  156  157 1   
   161  156  163 1   
   162  156  164 1   
   163  157  158 1   
   164  157  165 1   
   165  157  166 1   
   166  158  159 1   
   167  158  160 1   
   168  167  168 1   
   169  167  172 1   
   170  168  169 1   
   171  168  170 1   
   172  168  171 1   
   173  174  175 1   
   174  174  176 1   
   175  177  178 1   
   176  177  179 1   
   177  180  181 1   
   178  180  182 1   
@<TRIPOS>SUBSTRUCTURE
     1 MOL         1 TEMP              0 ****  ****    0 ROOT
