@<TRIPOS>MOLECULE
MOL
  181   177     1     0     0
SMALL
resp


@<TRIPOS>ATOM
      1 C1          2.3600    6.6240   -3.9830 c3        1 MOL     -0.419391
      2 C2          2.8970    6.9970   -2.5940 c         1 MOL      0.766344
      3 O1          2.2660    7.6280   -1.7560 o         1 MOL     -0.617643
      4 H1          1.6900    7.4090   -4.3350 hc        1 MOL      0.098449
      5 H2          3.1920    6.5180   -4.6790 hc        1 MOL      0.098449
      6 H3          1.8150    5.6830   -3.9200 hc        1 MOL      0.098449
      7 N1          4.1540    6.5990   -2.3620 n         1 MOL     -0.667797
      8 C3          4.9550    6.8570   -1.1170 c3        1 MOL      0.342362
      9 C4          5.1660    5.5920   -0.2700 c         1 MOL      0.486173
     10 O2          5.1150    4.4830   -0.7790 o         1 MOL     -0.472475
     11 C5          6.3650    7.4580   -1.5160 c3        1 MOL     -0.237009
     12 C6          7.1370    6.7850   -2.6660 c         1 MOL      0.719218
     13 O3          8.0280    5.9550   -2.3820 o         1 MOL     -0.728384
     14 O4          6.8020    6.8960   -3.8410 o         1 MOL     -0.728384
     15 H4          4.6660    6.0650   -3.0490 hn        1 MOL      0.342587
     16 H5          4.4620    7.6380   -0.5250 h1        1 MOL     -0.004602
     17 H6          7.0410    7.3620   -0.6610 hc        1 MOL      0.002420
     18 H7          6.3470    8.5160   -1.7850 hc        1 MOL      0.002420
     19 N2          5.3590    5.8320    1.0520 n         1 MOL     -0.652891
     20 C7          5.0250    4.7630    2.0270 c3        1 MOL      0.517572
     21 C8          3.6730    4.0450    1.8120 c         1 MOL      0.320020
     22 O5          2.7750    4.6550    1.2550 o         1 MOL     -0.526752
     23 C9          5.0070    5.3750    3.4240 c3        1 MOL     -0.523129
     24 H8          5.4200    6.8000    1.3380 hn        1 MOL      0.320801
     25 H9          5.7790    3.9760    1.9700 h1        1 MOL     -0.022321
     26 H10         4.6490    4.5630    4.0600 hc        1 MOL      0.132540
     27 H11         6.0490    5.6330    3.5890 hc        1 MOL      0.132540
     28 H12         4.3370    6.2290    3.4770 hc        1 MOL      0.132540
     29 N3          3.4220    2.8460    2.2660 n         1 MOL     -0.175721
     30 C10         4.2460    1.8400    2.9360 c3        1 MOL     -0.484906
     31 C11         4.3620    0.4690    2.2150 c         1 MOL      0.676566
     32 O6          3.3500   -0.0700    1.7140 o         1 MOL     -0.525882
     33 C12         3.8080    1.6190    4.3320 c3        1 MOL      0.138029
     34 C13         2.3430    1.5610    4.4710 c         1 MOL      0.521752
     35 O7          1.7120    0.9510    3.5650 o         1 MOL     -0.633117
     36 O8          1.8260    1.8130    5.5650 o         1 MOL     -0.633117
     37 H13         2.5120    2.5430    1.9460 hn        1 MOL      0.260736
     38 H14         5.2560    2.2270    3.0100 h1        1 MOL      0.131212
     39 H15         4.1820    2.4010    4.9900 hc        1 MOL     -0.002690
     40 H16         4.2800    0.6970    4.6800 hc        1 MOL     -0.002690
     41 N4          5.4830   -0.2830    2.4120 n         1 MOL     -0.507599
     42 C14         5.8800   -1.4610    1.6690 c3        1 MOL     -0.003334
     43 C15         6.0180   -1.2480    0.1110 c         1 MOL      0.555190
     44 O9          5.8720   -0.1700   -0.3890 o         1 MOL     -0.493125
     45 H17         6.2300    0.0920    2.9870 hn        1 MOL      0.314360
     46 H18         5.0480   -2.1600    1.8250 h1        1 MOL      0.095273
     47 H19         6.8400   -1.7900    2.0680 h1        1 MOL      0.095273
     48 N5          6.5220   -2.2070   -0.6540 n         1 MOL     -0.493251
     49 C16         6.6030   -3.6460   -0.2570 c3        1 MOL      0.150516
     50 C17         6.0600   -4.6450   -1.3650 c         1 MOL      0.512483
     51 O10         6.1140   -5.8260   -1.1850 o         1 MOL     -0.470819
     52 C18         8.0950   -3.9540    0.0700 c3        1 MOL     -0.578760
     53 C19         8.3280   -5.2050    0.9650 c         1 MOL      0.699191
     54 N6          9.0530   -6.1340    0.3790 n         1 MOL     -0.747027
     55 O11         7.8790   -5.3190    2.1020 o         1 MOL     -0.536968
     56 H20         6.6180   -2.0090   -1.6480 hn        1 MOL      0.293194
     57 H21         6.0050   -3.7900    0.6520 h1        1 MOL      0.057875
     58 H22         8.5100   -3.0910    0.5880 hc        1 MOL      0.166881
     59 H23         8.5670   -4.0990   -0.9040 hc        1 MOL      0.166881
     60 H24         9.4900   -5.8460   -0.4950 hn        1 MOL      0.352196
     61 H25         9.3520   -7.0010    0.8140 hn        1 MOL      0.352196
     62 N7          5.4600   -4.1630   -2.4710 n         1 MOL     -0.421206
     63 C20         4.7790   -5.0100   -3.6280 c3        1 MOL     -0.158072
     64 C21         3.3520   -5.5470   -3.3140 c         1 MOL      0.526811
     65 O12         2.9140   -6.5140   -3.9140 o         1 MOL     -0.526948
     66 H26         5.3590   -3.1480   -2.4920 hn        1 MOL      0.257078
     67 H27         5.3110   -5.9060   -3.9490 h1        1 MOL      0.129702
     68 H28         4.8160   -4.3490   -4.4900 h1        1 MOL      0.129702
     69 N8          2.6970   -4.9310   -2.3340 n         1 MOL     -0.436038
     70 C22         1.3600   -5.4170   -1.9500 c3        1 MOL      0.151859
     71 C23         0.3610   -4.2660   -1.8440 c         1 MOL      0.491737
     72 O13         0.7010   -3.0430   -1.8750 o         1 MOL     -0.611125
     73 C24         1.4350   -6.2290   -0.6500 c3        1 MOL      0.293875
     74 C25         2.2690   -7.5210   -0.7110 c3        1 MOL     -0.356436
     75 O14         1.8560   -5.3110    0.3720 oh        1 MOL     -0.582871
     76 H29         3.0280   -4.0990   -1.8610 hn        1 MOL      0.291875
     77 H30         0.9940   -6.1060   -2.7070 h1        1 MOL      0.046925
     78 H31         0.4570   -6.6150   -0.3520 h1        1 MOL      0.003012
     79 H32         1.8250   -5.8500    1.1660 ho        1 MOL      0.390677
     80 H33         1.9710   -8.0190   -1.6290 hc        1 MOL      0.101691
     81 H34         3.2950   -7.1310   -0.7610 hc        1 MOL      0.101691
     82 H35         2.1290   -8.1710    0.1430 hc        1 MOL      0.101691
     83 N9         -0.8340   -4.5820   -1.4960 n         1 MOL     -0.416803
     84 C26        -1.9620   -3.6320   -1.2090 c3        1 MOL      0.301064
     85 C27        -2.3700   -3.7770    0.2930 c         1 MOL      0.204709
     86 O15        -2.5660   -4.9110    0.7130 o         1 MOL     -0.517646
     87 C28        -3.0800   -3.7910   -2.1990 c3        1 MOL      0.058396
     88 C29        -4.2130   -2.8210   -1.9770 c3        1 MOL      0.100974
     89 C30        -2.4820   -3.7270   -3.6560 c3        1 MOL     -0.268409
     90 C31        -5.3980   -3.0000   -2.8530 c3        1 MOL     -0.284250
     91 H36        -1.0570   -5.5620   -1.4770 hn        1 MOL      0.234883
     92 H37        -1.5890   -2.6090   -1.3150 h1        1 MOL      0.009070
     93 H38        -3.4240   -4.8210   -2.0810 hc        1 MOL     -0.001170
     94 H39        -3.8610   -1.7860   -2.0540 hc        1 MOL      0.032016
     95 H40        -4.5740   -2.9380   -0.9560 hc        1 MOL      0.032016
     96 H41        -1.7520   -4.4970   -3.8960 hc        1 MOL      0.061744
     97 H42        -3.2730   -3.6930   -4.4070 hc        1 MOL      0.061744
     98 H43        -2.0980   -2.7130   -3.7920 hc        1 MOL      0.061744
     99 H44        -5.3140   -2.3920   -3.7500 hc        1 MOL      0.056217
    100 H45        -5.5630   -4.0630   -3.0650 hc        1 MOL      0.056217
    101 H46        -6.3480   -2.7830   -2.3720 hc        1 MOL      0.056217
    102 N10        -2.5940   -2.6510    0.9590 n         1 MOL      0.093270
    103 C32        -3.4140   -2.7130    2.1780 c3        1 MOL     -0.201882
    104 C33        -4.9390   -2.3690    1.8920 c         1 MOL      0.561161
    105 O16        -5.8430   -2.8590    2.5650 o         1 MOL     -0.572518
    106 C34        -2.8670   -1.6770    3.2900 c3        1 MOL     -0.148414
    107 C35        -1.3350   -1.8130    3.5350 c         1 MOL      0.857160
    108 O17        -0.6690   -0.7530    3.4000 o         1 MOL     -0.748603
    109 O18        -0.8410   -2.8650    3.9630 o         1 MOL     -0.748603
    110 H47        -2.3360   -1.7440    0.5840 hn        1 MOL     -0.101515
    111 H48        -3.4390   -3.7330    2.5760 h1        1 MOL      0.130460
    112 H49        -3.2960   -1.7830    4.2900 hc        1 MOL      0.043575
    113 H50        -3.1680   -0.6690    3.0110 hc        1 MOL      0.043575
    114 N11        -5.2950   -1.3970    1.0260 n         1 MOL     -0.399597
    115 C36        -6.5930   -0.7600    0.9840 c3        1 MOL      0.175557
    116 C37        -6.3800    0.7090    0.5180 c         1 MOL      0.346011
    117 O19        -6.8030    0.9860   -0.6060 o         1 MOL     -0.443518
    118 C38        -7.6490   -1.5040    0.1280 c3        1 MOL     -0.068588
    119 C39        -9.0910   -0.9990    0.1700 ca        1 MOL      0.057288
    120 C40        -9.6500   -0.6440    1.4300 ca        1 MOL     -0.189154
    121 C41        -9.8180   -0.6460   -0.9770 ca        1 MOL     -0.189154
    122 C42       -10.8660    0.1140    1.4910 ca        1 MOL     -0.066887
    123 C43       -11.1010   -0.0120   -0.8860 ca        1 MOL     -0.066887
    124 C44       -11.6370    0.3600    0.3310 ca        1 MOL     -0.166998
    125 H51        -4.5530   -0.9690    0.4830 hn        1 MOL      0.182108
    126 H52        -7.0780   -0.6470    1.9530 h1        1 MOL      0.040468
    127 H53        -7.6590   -2.5250    0.4930 hc        1 MOL      0.055555
    128 H54        -7.2800   -1.5950   -0.8860 hc        1 MOL      0.055555
    129 H55        -9.1240   -0.7870    2.3620 ha        1 MOL      0.122980
    130 H56        -9.3890   -0.9600   -1.9140 ha        1 MOL      0.122980
    131 H57       -11.2290    0.3150    2.4870 ha        1 MOL      0.086156
    132 H58       -11.7620    0.0680   -1.7340 ha        1 MOL      0.086156
    133 H59       -12.6090    0.8170    0.3920 ha        1 MOL      0.111914
    134 N12        -5.8910    1.6790    1.3450 n         1 MOL     -0.095094
    135 C45        -5.9500    3.1110    1.0050 c3        1 MOL     -0.051118
    136 C46        -5.3810    3.5430   -0.3550 c         1 MOL      0.174027
    137 O20        -5.6200    4.6970   -0.8180 o         1 MOL     -0.487778
    138 C47        -5.1350    3.8120    2.0760 c3        1 MOL      0.111374
    139 C48        -5.2910    2.9340    3.3350 c3        1 MOL     -0.285275
    140 C49        -5.3890    1.5200    2.6840 c3        1 MOL      0.166002
    141 H60        -6.9840    3.3800    1.1910 h1        1 MOL      0.079662
    142 H61        -4.1210    3.7740    1.6950 hc        1 MOL      0.026235
    143 H62        -5.3730    4.8750    2.1860 hc        1 MOL      0.026235
    144 H63        -4.3580    3.0470    3.8850 hc        1 MOL      0.081334
    145 H64        -6.1860    3.2670    3.8580 hc        1 MOL      0.081334
    146 H65        -4.4340    0.9990    2.7210 h1        1 MOL     -0.001414
    147 H66        -6.1290    0.9080    3.2020 h1        1 MOL     -0.001414
    148 N13        -4.6350    2.6460   -1.0020 n         1 MOL      0.130068
    149 C50        -3.9410    2.9930   -2.1670 c3        1 MOL     -0.268480
    150 C51        -4.9640    3.0870   -3.3150 c         1 MOL      0.503467
    151 O21        -4.8130    3.8710   -4.2320 o         1 MOL     -0.549368
    152 C52        -2.8620    1.9470   -2.4710 c3        1 MOL      0.036863
    153 C53        -1.8270    1.6570   -1.3880 c3        1 MOL     -0.064620
    154 C54        -2.2680    0.5820   -0.3580 c         1 MOL      0.384268
    155 O22        -1.3490   -0.1140    0.0720 o         1 MOL     -0.416052
    156 O23        -3.4610    0.4140    0.0440 o         1 MOL     -0.416052
    157 H67        -4.5540    1.7760   -0.4940 hn        1 MOL      0.015164
    158 H68        -3.4340    3.9460   -2.0850 h1        1 MOL      0.139616
    159 H69        -2.3050    2.1720   -3.3810 hc        1 MOL     -0.000586
    160 H70        -3.3790    0.9890   -2.5730 hc        1 MOL     -0.000586
    161 H71        -1.5270    2.5790   -0.8880 hc        1 MOL      0.051997
    162 H72        -0.9760    1.2010   -1.8820 hc        1 MOL      0.051997
    163 N14        -6.0170    2.2920   -3.2960 n         1 MOL     -0.127846
    164 C55        -7.0960    2.3100   -4.2600 c3        1 MOL     -0.350959
    165 H73        -7.6390    3.2510   -4.1800 h1        1 MOL      0.121054
    166 H74        -6.6870    2.2120   -5.2660 h1        1 MOL      0.121054
    167 H75        -7.7750    1.4810   -4.0620 h1        1 MOL      0.121054
    168 H76        -6.0150    1.5400   -2.6260 hn        1 MOL      0.181668
    169 Ca1         0.7640    0.0550    1.4670 Ca        1 MOL      1.632945
    170 O24        -0.8680    2.1020    2.0120 oh        1 MOL     -0.862738
    171 H77        -1.5520    1.8560    2.6320 ho        1 MOL      0.417913
    172 H78        -0.5170    2.9210    2.3570 ho        1 MOL      0.417913
    173 O25         1.6600   -0.9060   -0.8190 oh        1 MOL     -0.862738
    174 H79         1.2010   -1.6060   -1.2980 ho        1 MOL      0.417913
    175 H80         2.2030   -0.4870   -1.4750 ho        1 MOL      0.417913
    176 O26         0.8700   -2.7180    1.5640 oh        1 MOL     -0.862738
    177 H81         0.1740   -3.0590    2.1300 ho        1 MOL      0.417913
    178 H82         1.3900   -3.4870    1.3400 ho        1 MOL      0.417913
    179 O27         1.2620    2.0070   -0.3620 oh        1 MOL     -0.862738
    180 H83         0.6830    2.7580   -0.5220 ho        1 MOL      0.417913
    181 H84         2.0990    2.2670   -0.7570 ho        1 MOL      0.417913
@<TRIPOS>BOND
     1    1    2 1   
     2    1    4 1   
     3    1    5 1   
     4    1    6 1   
     5    2    3 2   
     6    2    7 1   
     7    7    8 1   
     8    7   15 1   
     9    8    9 1   
    10    8   11 1   
    11    8   16 1   
    12    9   10 2   
    13    9   19 1   
    14   11   12 1   
    15   11   17 1   
    16   11   18 1   
    17   12   13 1   
    18   12   14 1   
    19   19   20 1   
    20   19   24 1   
    21   20   21 1   
    22   20   23 1   
    23   20   25 1   
    24   21   22 2   
    25   21   29 1   
    26   23   26 1   
    27   23   27 1   
    28   23   28 1   
    29   29   30 1   
    30   29   37 1   
    31   30   31 1   
    32   30   33 1   
    33   30   38 1   
    34   31   32 2   
    35   31   41 1   
    36   33   34 1   
    37   33   39 1   
    38   33   40 1   
    39   34   35 1   
    40   34   36 1   
    41   41   42 1   
    42   41   45 1   
    43   42   43 1   
    44   42   46 1   
    45   42   47 1   
    46   43   44 2   
    47   43   48 1   
    48   48   49 1   
    49   48   56 1   
    50   49   50 1   
    51   49   52 1   
    52   49   57 1   
    53   50   51 2   
    54   50   62 1   
    55   52   53 1   
    56   52   58 1   
    57   52   59 1   
    58   53   54 1   
    59   53   55 2   
    60   54   60 1   
    61   54   61 1   
    62   62   63 1   
    63   62   66 1   
    64   63   64 1   
    65   63   67 1   
    66   63   68 1   
    67   64   65 2   
    68   64   69 1   
    69   69   70 1   
    70   69   76 1   
    71   70   71 1   
    72   70   73 1   
    73   70   77 1   
    74   71   72 2   
    75   71   83 1   
    76   73   74 1   
    77   73   75 1   
    78   73   78 1   
    79   74   80 1   
    80   74   81 1   
    81   74   82 1   
    82   75   79 1   
    83   83   84 1   
    84   83   91 1   
    85   84   85 1   
    86   84   87 1   
    87   84   92 1   
    88   85   86 2   
    89   85  102 1   
    90   87   88 1   
    91   87   89 1   
    92   87   93 1   
    93   88   90 1   
    94   88   94 1   
    95   88   95 1   
    96   89   96 1   
    97   89   97 1   
    98   89   98 1   
    99   90   99 1   
   100   90  100 1   
   101   90  101 1   
   102  102  103 1   
   103  102  110 1   
   104  103  104 1   
   105  103  106 1   
   106  103  111 1   
   107  104  105 2   
   108  104  114 1   
   109  106  107 1   
   110  106  112 1   
   111  106  113 1   
   112  107  108 1   
   113  107  109 1   
   114  114  115 1   
   115  114  125 1   
   116  115  116 1   
   117  115  118 1   
   118  115  126 1   
   119  116  117 2   
   120  116  134 1   
   121  118  119 1   
   122  118  127 1   
   123  118  128 1   
   124  119  120 ar  
   125  119  121 ar  
   126  120  122 ar  
   127  120  129 1   
   128  121  123 ar  
   129  121  130 1   
   130  122  124 ar  
   131  122  131 1   
   132  123  124 ar  
   133  123  132 1   
   134  124  133 1   
   135  134  135 1   
   136  134  140 1   
   137  135  136 1   
   138  135  138 1   
   139  135  141 1   
   140  136  137 2   
   141  136  148 1   
   142  138  139 1   
   143  138  142 1   
   144  138  143 1   
   145  139  140 1   
   146  139  144 1   
   147  139  145 1   
   148  140  146 1   
   149  140  147 1   
   150  148  149 1   
   151  148  157 1   
   152  149  150 1   
   153  149  152 1   
   154  149  158 1   
   155  150  151 2   
   156  150  163 1   
   157  152  153 1   
   158  152  159 1   
   159  152  160 1   
   160  153  154 1   
   161  153  161 1   
   162  153  162 1   
   163  154  155 1   
   164  154  156 1   
   165  163  164 1   
   166  163  168 1   
   167  164  165 1   
   168  164  166 1   
   169  164  167 1   
   170  170  171 1   
   171  170  172 1   
   172  173  174 1   
   173  173  175 1   
   174  176  177 1   
   175  176  178 1   
   176  179  180 1   
   177  179  181 1   
@<TRIPOS>SUBSTRUCTURE
     1 MOL         1 TEMP              0 ****  ****    0 ROOT
