@<TRIPOS>MOLECULE
MOL
  185   180     1     0     0
SMALL
resp


@<TRIPOS>ATOM
      1 C1         -5.3800    1.8510   -3.9660 c3        1 MOL     -0.352918
      2 C2         -6.1610    1.5630   -2.6320 c         1 MOL      0.701621
      3 O1         -5.6000    1.2340   -1.5850 o         1 MOL     -0.548984
      4 H1         -4.6930    2.6840   -3.8120 hc        1 MOL      0.097299
      5 H2         -4.8150    0.9650   -4.2560 hc        1 MOL      0.097299
      6 H3         -6.0870    2.1060   -4.7550 hc        1 MOL      0.097299
      7 N1         -7.5300    1.6200   -2.7020 n         1 MOL     -0.837289
      8 C3         -8.3660    1.6940   -1.5310 c3        1 MOL      0.550345
      9 C4         -8.3640    0.4940   -0.5210 c         1 MOL      0.339867
     10 O2         -8.9530    0.6190    0.5780 o         1 MOL     -0.488582
     11 C5         -8.2010    2.9750   -0.8280 c3        1 MOL     -0.363282
     12 C6         -9.5400    3.6750   -0.4300 c         1 MOL      0.631548
     13 O3        -10.6430    3.2210   -0.8340 o         1 MOL     -0.641908
     14 O4         -9.5390    4.6840    0.3710 o         1 MOL     -0.641908
     15 H4         -8.0200    1.8620   -3.5540 hn        1 MOL      0.383561
     16 H5         -9.4050    1.6190   -1.8800 h1        1 MOL     -0.052463
     17 H6         -7.6120    3.6780   -1.4200 hc        1 MOL      0.085604
     18 H7         -7.5520    2.9090    0.0380 hc        1 MOL      0.085604
     19 N2         -7.6480   -0.5880   -0.8580 n         1 MOL     -0.316446
     20 C7         -7.6750   -1.8160   -0.0950 c3        1 MOL      0.012813
     21 C8         -6.3330   -2.4190   -0.0540 c         1 MOL      0.660733
     22 O5         -6.0950   -3.5890   -0.1220 o         1 MOL     -0.578415
     23 C9         -8.8430   -2.6180   -0.7620 c3        1 MOL     -0.031994
     24 C10       -10.2300   -2.1590   -0.3070 c3        1 MOL      0.002572
     25 C11       -11.3540   -3.1200   -0.6820 c3        1 MOL     -0.055875
     26 C12       -12.5930   -2.7360    0.1280 c3        1 MOL      0.070617
     27 N3        -13.7500   -3.6730   -0.0120 n4        1 MOL     -0.417367
     28 H8         -7.1910   -0.5800   -1.7670 hn        1 MOL      0.227534
     29 H9         -7.9220   -1.6540    0.9600 h1        1 MOL      0.083826
     30 H10        -8.7090   -3.6820   -0.5450 hc        1 MOL      0.017463
     31 H11        -8.7720   -2.5290   -1.8430 hc        1 MOL      0.017463
     32 H12       -10.4250   -1.1500   -0.6650 hc        1 MOL      0.035751
     33 H13       -10.2410   -2.0740    0.7830 hc        1 MOL      0.035751
     34 H14       -10.9950   -4.1330   -0.5130 hc        1 MOL      0.030899
     35 H15       -11.5750   -3.0980   -1.7460 hc        1 MOL      0.030899
     36 H16       -12.8800   -1.7190   -0.1470 hx        1 MOL      0.083905
     37 H17       -12.2600   -2.6810    1.1600 hx        1 MOL      0.083905
     38 H18       -14.5170   -3.2960    0.5180 hn        1 MOL      0.312771
     39 H19       -14.0430   -3.7920   -0.9670 hn        1 MOL      0.312771
     40 H20       -13.3600   -4.5140    0.3770 hn        1 MOL      0.312771
     41 N4         -5.2860   -1.5020   -0.1290 n         1 MOL     -0.497949
     42 C13        -3.8260   -1.9330   -0.1100 c3        1 MOL     -0.097757
     43 C14        -3.5000   -2.6800    1.1910 c         1 MOL      0.534778
     44 O6         -3.9190   -2.2440    2.2490 o         1 MOL     -0.486601
     45 C15        -2.9700   -0.6550   -0.3450 c3        1 MOL     -0.140431
     46 C16        -1.4920   -0.9000   -0.3150 c         1 MOL      0.503584
     47 O7         -0.9340   -1.1200    0.7460 o         1 MOL     -0.647294
     48 O8         -0.7650   -0.8270   -1.3680 o         1 MOL     -0.647294
     49 H21        -5.5410   -0.5250   -0.0480 hn        1 MOL      0.279019
     50 H22        -3.6890   -2.6000   -0.9610 h1        1 MOL      0.117273
     51 H23        -3.2640    0.0590    0.4330 hc        1 MOL      0.123377
     52 H24        -3.2540   -0.1490   -1.2660 hc        1 MOL      0.123377
     53 N5         -2.6680   -3.8130    1.1660 n         1 MOL     -0.261490
     54 C17        -2.2160   -4.6690    2.2800 c3        1 MOL     -0.213536
     55 C18        -1.4150   -3.9290    3.3300 c         1 MOL      0.589843
     56 O9         -1.2020   -4.3810    4.4630 o         1 MOL     -0.596046
     57 H25        -2.3790   -4.0850    0.2340 hn        1 MOL      0.183785
     58 H26        -1.5460   -5.4210    1.8680 h1        1 MOL      0.113937
     59 H27        -3.0790   -5.0790    2.7860 h1        1 MOL      0.113937
     60 N6         -0.9860   -2.7320    3.0290 n         1 MOL     -0.367534
     61 C19        -0.3870   -1.8810    4.0600 c3        1 MOL      0.132002
     62 C20        -0.8120   -0.4080    4.0070 c         1 MOL      0.316632
     63 O10        -0.2310    0.3770    4.7720 o         1 MOL     -0.514630
     64 C21         1.1300   -2.1340    3.9750 c3        1 MOL     -0.583158
     65 C22         1.8410   -1.5010    2.7530 c         1 MOL      0.922973
     66 N7          2.1680   -0.2240    2.8440 n         1 MOL     -0.869460
     67 O11         2.0390   -2.0590    1.6970 o         1 MOL     -0.766593
     68 H28        -1.1060   -2.3730    2.0900 hn        1 MOL      0.364262
     69 H29        -0.7870   -2.2270    5.0160 h1        1 MOL      0.149799
     70 H30         1.1880   -3.2200    3.8260 hc        1 MOL      0.172845
     71 H31         1.5340   -1.9050    4.9650 hc        1 MOL      0.172845
     72 H32         2.0740    0.2260    3.7370 hn        1 MOL      0.378123
     73 H33         2.4460    0.1700    1.9610 hn        1 MOL      0.378123
     74 N8         -1.8150    0.0630    3.2930 n         1 MOL     -0.130239
     75 C23        -2.2040    1.5650    3.2230 c3        1 MOL     -0.138919
     76 C24        -1.2520    2.5490    2.4970 c         1 MOL      0.437266
     77 O12        -1.0710    3.6800    2.9370 o         1 MOL     -0.491429
     78 H34        -2.3590   -0.5760    2.7230 hn        1 MOL      0.060072
     79 H35        -2.3750    2.0100    4.2090 h1        1 MOL      0.116570
     80 H36        -3.1660    1.6660    2.7240 h1        1 MOL      0.116570
     81 N9         -0.6350    1.9850    1.4070 n         1 MOL     -0.221700
     82 C25         0.1370    2.6860    0.4100 c3        1 MOL      0.099996
     83 C26         1.5030    2.0930    0.0050 c         1 MOL      0.304915
     84 O13         1.6660    0.8980    0.1140 o         1 MOL     -0.473121
     85 C27        -0.7820    2.7870   -0.8350 c3        1 MOL      0.093166
     86 C28        -1.9080    3.7470   -0.9440 ca        1 MOL     -0.022784
     87 C29        -1.6800    4.9130   -1.7120 ca        1 MOL     -0.143753
     88 C30        -3.1220    3.5120   -0.2670 ca        1 MOL     -0.143753
     89 C31        -2.7640    5.8200   -1.9450 ca        1 MOL     -0.247310
     90 C32        -4.2290    4.3650   -0.5500 ca        1 MOL     -0.247310
     91 C33        -4.0220    5.4610   -1.4070 ca        1 MOL      0.378725
     92 O14        -5.1330    6.2600   -1.7100 oh        1 MOL     -0.573459
     93 H37        -0.7620    0.9920    1.2940 hn        1 MOL      0.273666
     94 H38         0.3330    3.6740    0.8390 h1        1 MOL      0.002372
     95 H39        -1.2010    1.7990   -1.0180 hc        1 MOL     -0.025953
     96 H40        -0.1120    2.9730   -1.6760 hc        1 MOL     -0.025953
     97 H41        -0.7550    5.0760   -2.2600 ha        1 MOL      0.112411
     98 H42        -3.3690    2.5710    0.2120 ha        1 MOL      0.112411
     99 H43        -2.6550    6.7370   -2.5040 ha        1 MOL      0.157772
    100 H44        -5.2260    4.1640   -0.1850 ha        1 MOL      0.157772
    101 H45        -5.9630    6.0040   -1.2980 ho        1 MOL      0.410675
    102 N10         2.3450    2.9730   -0.5810 n         1 MOL     -0.219580
    103 C34         3.7060    2.6460   -0.9830 c3        1 MOL      0.020371
    104 C35         4.4640    2.1690    0.2470 c         1 MOL      0.006106
    105 O15         4.8960    1.0250    0.2580 o         1 MOL     -0.351934
    106 C36         4.3680    3.8500   -1.6710 c3        1 MOL      0.053316
    107 C37         3.6510    4.3870   -2.9110 c3        1 MOL     -0.090350
    108 C38         5.8020    3.4770   -2.0870 c3        1 MOL     -0.231200
    109 C39         3.4880    3.3190   -4.0800 c3        1 MOL     -0.046563
    110 H46         2.0640    3.9310   -0.7490 hn        1 MOL      0.227001
    111 H47         3.6760    1.9190   -1.7940 h1        1 MOL      0.085657
    112 H48         4.4500    4.6170   -0.9060 hc        1 MOL     -0.003279
    113 H49         4.0780    5.3060   -3.3040 hc        1 MOL      0.044283
    114 H50         2.6080    4.5840   -2.6610 hc        1 MOL      0.044283
    115 H51         6.2990    3.0450   -1.2250 hc        1 MOL      0.081539
    116 H52         5.8390    2.5720   -2.6910 hc        1 MOL      0.081539
    117 H53         6.5170    4.2050   -2.4710 hc        1 MOL      0.081539
    118 H54         2.6670    2.7040   -3.7230 hc        1 MOL      0.024709
    119 H55         3.1640    3.7030   -5.0500 hc        1 MOL      0.024709
    120 H56         4.3310    2.6270   -4.0970 hc        1 MOL      0.024709
    121 N11         4.4810    2.9790    1.3060 n         1 MOL     -0.074813
    122 C40         5.2160    2.6130    2.5190 c3        1 MOL     -0.081455
    123 C41         6.7530    2.6310    2.3790 c         1 MOL      0.236059
    124 O16         7.3740    2.1620    3.3210 o         1 MOL     -0.431199
    125 C42         4.8100    3.5130    3.6670 c3        1 MOL      0.275643
    126 O17         3.4480    3.5420    3.9170 oh        1 MOL     -0.583608
    127 H57         3.9790    3.8610    1.2380 hn        1 MOL      0.244935
    128 H58         5.0070    1.5800    2.8160 h1        1 MOL      0.121347
    129 H59         5.1540    4.5360    3.5130 h1        1 MOL      0.018043
    130 H60         5.2530    3.1700    4.5950 h1        1 MOL      0.018043
    131 H61         3.3430    2.6890    4.3490 ho        1 MOL      0.396119
    132 N12         7.2850    3.0730    1.2830 n         1 MOL     -0.210550
    133 C43         8.5830    2.6160    0.8030 c3        1 MOL      0.308009
    134 C44         8.8440    1.0930    0.8950 c         1 MOL      0.386336
    135 O18         9.9340    0.6820    1.2730 o         1 MOL     -0.509685
    136 C45         9.7310    3.4570    1.4080 c3        1 MOL     -0.332131
    137 H62         6.8230    3.8290    0.8110 hn        1 MOL      0.207239
    138 H63         8.5930    2.7990   -0.2710 h1        1 MOL     -0.016294
    139 H64        10.1090    2.9260    2.2830 hc        1 MOL      0.087945
    140 H65        10.5510    3.5330    0.6990 hc        1 MOL      0.087945
    141 H66         9.3820    4.4710    1.5410 hc        1 MOL      0.087945
    142 N13         7.8480    0.2680    0.6320 n         1 MOL     -0.284974
    143 C46         7.8530   -1.2030    0.6220 c3        1 MOL      0.400092
    144 C47         7.2330   -1.6640   -0.7320 c         1 MOL      0.143634
    145 O19         6.4780   -0.9500   -1.3720 o         1 MOL     -0.398303
    146 C48         7.0530   -1.7170    1.7550 c3        1 MOL     -0.306861
    147 H67         6.9470    0.6970    0.4660 hn        1 MOL      0.088201
    148 H68         8.8900   -1.5570    0.5770 h1        1 MOL     -0.022907
    149 H69         7.4510   -1.4470    2.7320 hc        1 MOL      0.086139
    150 H70         6.0540   -1.2880    1.6070 hc        1 MOL      0.086139
    151 H71         6.9670   -2.7970    1.7040 hc        1 MOL      0.086139
    152 N14         7.4700   -2.9280   -1.0740 n         1 MOL     -0.086073
    153 C49         7.2650   -3.5590   -2.3650 c3        1 MOL     -0.152624
    154 C50         7.8730   -2.8180   -3.5020 c         1 MOL      0.529612
    155 O20         7.2710   -2.5790   -4.5290 o         1 MOL     -0.500048
    156 C51         5.7640   -3.8750   -2.5850 c3        1 MOL      0.118385
    157 C52         5.1610   -4.8790   -1.5750 c3        1 MOL     -0.063759
    158 C53         3.6210   -5.0620   -1.6900 c         1 MOL      0.574774
    159 O21         3.1960   -6.2240   -1.8510 o         1 MOL     -0.673281
    160 O22         2.8020   -4.0920   -1.6050 o         1 MOL     -0.673281
    161 H72         8.0990   -3.4400   -0.4710 hn        1 MOL      0.188833
    162 H73         7.8010   -4.5020   -2.3570 h1        1 MOL      0.067863
    163 H74         5.7930   -4.3880   -3.5410 hc        1 MOL     -0.001272
    164 H75         5.1520   -2.9690   -2.6460 hc        1 MOL     -0.001272
    165 H76         5.4010   -4.4840   -0.5820 hc        1 MOL      0.000619
    166 H77         5.6030   -5.8500   -1.7940 hc        1 MOL      0.000619
    167 N15         9.0920   -2.1890   -3.3870 n         1 MOL     -0.370531
    168 C54         9.7120   -1.2260   -4.3580 c3        1 MOL     -0.064745
    169 H78        10.2540   -0.4560   -3.8090 h1        1 MOL      0.074022
    170 H79        10.4030   -1.7600   -5.0100 h1        1 MOL      0.074022
    171 H80         8.9300   -0.7610   -4.9590 h1        1 MOL      0.074022
    172 H81         9.5850   -2.3330   -2.5160 hn        1 MOL      0.223149
    173 Ca1         1.2740   -2.2270   -0.7990 Ca        1 MOL      1.716315
    174 O23         0.5210   -4.4810    0.5130 oh        1 MOL     -0.829828
    175 H82         1.0070   -4.9620    1.1740 ho        1 MOL      0.411183
    176 H83         0.4430   -5.0870   -0.2270 ho        1 MOL      0.411183
    177 O24         1.7480   -1.2210   -3.2410 oh        1 MOL     -0.829828
    178 H84         1.4940   -0.3400   -3.5110 ho        1 MOL      0.411183
    179 H85         2.6180   -1.3530   -3.6210 ho        1 MOL      0.411183
    180 O25         3.7440   -1.2500   -0.6140 oh        1 MOL     -0.829828
    181 H86         3.6720   -0.3830   -0.2010 ho        1 MOL      0.411183
    182 H87         4.6630   -1.3150   -0.8710 ho        1 MOL      0.411183
    183 O26        -0.4760   -3.7000   -2.3170 oh        1 MOL     -0.829828
    184 H88         0.0120   -4.2370   -2.9340 ho        1 MOL      0.411183
    185 H89        -1.2250   -4.2340   -2.0540 ho        1 MOL      0.411183
@<TRIPOS>BOND
     1    1    2 1   
     2    1    4 1   
     3    1    5 1   
     4    1    6 1   
     5    2    3 2   
     6    2    7 1   
     7    7    8 1   
     8    7   15 1   
     9    8    9 1   
    10    8   11 1   
    11    8   16 1   
    12    9   10 2   
    13    9   19 1   
    14   11   12 1   
    15   11   17 1   
    16   11   18 1   
    17   12   13 1   
    18   12   14 1   
    19   19   20 1   
    20   19   28 1   
    21   20   21 1   
    22   20   23 1   
    23   20   29 1   
    24   21   22 2   
    25   21   41 1   
    26   23   24 1   
    27   23   30 1   
    28   23   31 1   
    29   24   25 1   
    30   24   32 1   
    31   24   33 1   
    32   25   26 1   
    33   25   34 1   
    34   25   35 1   
    35   26   27 1   
    36   26   36 1   
    37   26   37 1   
    38   27   38 1   
    39   27   39 1   
    40   27   40 1   
    41   41   42 1   
    42   41   49 1   
    43   42   43 1   
    44   42   45 1   
    45   42   50 1   
    46   43   44 2   
    47   43   53 1   
    48   45   46 1   
    49   45   51 1   
    50   45   52 1   
    51   46   47 1   
    52   46   48 1   
    53   53   54 1   
    54   53   57 1   
    55   54   55 1   
    56   54   58 1   
    57   54   59 1   
    58   55   56 2   
    59   55   60 1   
    60   60   61 1   
    61   60   68 1   
    62   61   62 1   
    63   61   64 1   
    64   61   69 1   
    65   62   63 2   
    66   62   74 1   
    67   64   65 1   
    68   64   70 1   
    69   64   71 1   
    70   65   66 1   
    71   65   67 2   
    72   66   72 1   
    73   66   73 1   
    74   74   75 1   
    75   74   78 1   
    76   75   76 1   
    77   75   79 1   
    78   75   80 1   
    79   76   77 2   
    80   76   81 1   
    81   81   82 1   
    82   81   93 1   
    83   82   83 1   
    84   82   85 1   
    85   82   94 1   
    86   83   84 2   
    87   83  102 1   
    88   85   86 1   
    89   85   95 1   
    90   85   96 1   
    91   86   87 ar  
    92   86   88 ar  
    93   87   89 ar  
    94   87   97 1   
    95   88   90 ar  
    96   88   98 1   
    97   89   91 ar  
    98   89   99 1   
    99   90   91 ar  
   100   90  100 1   
   101   91   92 1   
   102   92  101 1   
   103  102  103 1   
   104  102  110 1   
   105  103  104 1   
   106  103  106 1   
   107  103  111 1   
   108  104  105 2   
   109  104  121 1   
   110  106  107 1   
   111  106  108 1   
   112  106  112 1   
   113  107  109 1   
   114  107  113 1   
   115  107  114 1   
   116  108  115 1   
   117  108  116 1   
   118  108  117 1   
   119  109  118 1   
   120  109  119 1   
   121  109  120 1   
   122  121  122 1   
   123  121  127 1   
   124  122  123 1   
   125  122  125 1   
   126  122  128 1   
   127  123  124 2   
   128  123  132 1   
   129  125  126 1   
   130  125  129 1   
   131  125  130 1   
   132  126  131 1   
   133  132  133 1   
   134  132  137 1   
   135  133  134 1   
   136  133  136 1   
   137  133  138 1   
   138  134  135 2   
   139  134  142 1   
   140  136  139 1   
   141  136  140 1   
   142  136  141 1   
   143  142  143 1   
   144  142  147 1   
   145  143  144 1   
   146  143  146 1   
   147  143  148 1   
   148  144  145 2   
   149  144  152 1   
   150  146  149 1   
   151  146  150 1   
   152  146  151 1   
   153  152  153 1   
   154  152  161 1   
   155  153  154 1   
   156  153  156 1   
   157  153  162 1   
   158  154  155 2   
   159  154  167 1   
   160  156  157 1   
   161  156  163 1   
   162  156  164 1   
   163  157  158 1   
   164  157  165 1   
   165  157  166 1   
   166  158  159 1   
   167  158  160 1   
   168  167  168 1   
   169  167  172 1   
   170  168  169 1   
   171  168  170 1   
   172  168  171 1   
   173  174  175 1   
   174  174  176 1   
   175  177  178 1   
   176  177  179 1   
   177  180  181 1   
   178  180  182 1   
   179  183  184 1   
   180  183  185 1   
@<TRIPOS>SUBSTRUCTURE
     1 MOL         1 TEMP              0 ****  ****    0 ROOT
