@<TRIPOS>MOLECULE
MOL
  192   187     1     0     0
SMALL
resp


@<TRIPOS>ATOM
      1 C1         -9.1330    0.4480   -2.9790 c3        1 MOL     -0.366271
      2 C2         -8.2510    0.8210   -1.7300 c         1 MOL      0.714023
      3 O1         -7.3410    1.5910   -1.7930 o         1 MOL     -0.635003
      4 H1         -9.4740   -0.5830   -2.8860 hc        1 MOL      0.083825
      5 H2         -9.9950    1.1120   -3.0280 hc        1 MOL      0.083825
      6 H3         -8.5400    0.5530   -3.8880 hc        1 MOL      0.083825
      7 N1         -8.4680    0.1310   -0.6180 n         1 MOL     -0.423674
      8 C3         -7.7130    0.1370    0.6530 c3        1 MOL     -0.046109
      9 C4         -7.0530   -1.2280    1.0120 c         1 MOL      0.276857
     10 O2         -6.8240   -1.6340    2.1440 o         1 MOL     -0.410435
     11 C5         -8.6870    0.5430    1.7800 c3        1 MOL     -0.170788
     12 C6         -9.9660   -0.3430    1.8170 c         1 MOL      0.745739
     13 O3        -10.9220    0.0170    2.4460 o         1 MOL     -0.651295
     14 O4        -10.0850   -1.3070    1.0150 o         1 MOL     -0.651295
     15 H4         -9.2290   -0.5460   -0.6470 hn        1 MOL      0.209968
     16 H5         -6.9380    0.9020    0.6380 h1        1 MOL      0.184850
     17 H6         -8.8450    1.6190    1.7040 hc        1 MOL      0.057942
     18 H7         -8.2040    0.4170    2.7460 hc        1 MOL      0.057942
     19 N2         -6.7200   -2.0330    0.0370 n         1 MOL     -0.217809
     20 C7         -6.2770   -3.4710    0.1120 c3        1 MOL     -0.106014
     21 C8         -4.8950   -3.6410    0.7750 c         1 MOL      0.544631
     22 O5         -4.7030   -4.6000    1.5150 o         1 MOL     -0.557880
     23 C9         -6.4740   -4.0850   -1.2450 c3        1 MOL     -0.061226
     24 C10        -6.8280   -5.5560   -1.1740 c3        1 MOL     -0.018586
     25 C11        -7.5240   -6.1950   -2.3820 c3        1 MOL      0.040021
     26 C12        -8.7950   -5.4560   -2.8330 c3        1 MOL      0.018146
     27 N3         -9.0080   -5.7400   -4.2170 n4        1 MOL     -0.394812
     28 H8         -6.6560   -1.6570   -0.8960 hn        1 MOL      0.176254
     29 H9         -7.0290   -3.8960    0.7740 h1        1 MOL      0.153243
     30 H10        -5.5950   -3.9480   -1.8800 hc        1 MOL      0.013817
     31 H11        -7.2510   -3.4810   -1.7170 hc        1 MOL      0.013817
     32 H12        -7.5480   -5.6790   -0.3670 hc        1 MOL      0.054339
     33 H13        -5.9310   -6.0770   -0.8670 hc        1 MOL      0.054339
     34 H14        -7.6270   -7.2360   -2.0750 hc        1 MOL      0.011809
     35 H15        -6.8820   -6.2540   -3.2620 hc        1 MOL      0.011809
     36 H16        -8.6210   -4.3760   -2.8310 hx        1 MOL      0.091119
     37 H17        -9.6570   -5.7120   -2.2250 hx        1 MOL      0.091119
     38 H18        -8.2990   -5.3160   -4.7960 hn        1 MOL      0.315682
     39 H19        -9.1100   -6.7290   -4.3730 hn        1 MOL      0.315682
     40 H20        -9.9020   -5.3340   -4.4390 hn        1 MOL      0.315682
     41 N4         -3.8380   -2.8360    0.6070 n         1 MOL     -0.426254
     42 C13        -3.6460   -1.7700   -0.3430 c3        1 MOL      0.210303
     43 C14        -3.8660   -0.4020    0.2090 c         1 MOL      0.224057
     44 O6         -3.9910   -0.2200    1.4280 o         1 MOL     -0.378948
     45 C15        -2.2920   -1.9140   -1.0610 c3        1 MOL     -0.336531
     46 C16        -0.9880   -2.0720   -0.2980 c         1 MOL      0.787105
     47 O7         -0.7240   -1.2230    0.5770 o         1 MOL     -0.715308
     48 O8         -0.1390   -2.9110   -0.6700 o         1 MOL     -0.715308
     49 H21        -3.0340   -3.1460    1.1240 hn        1 MOL      0.351056
     50 H22        -4.4450   -1.7960   -1.0910 h1        1 MOL      0.026394
     51 H23        -2.1770   -1.0560   -1.7180 hc        1 MOL      0.072439
     52 H24        -2.3340   -2.7500   -1.7580 hc        1 MOL      0.072439
     53 N5         -3.8820    0.6350   -0.5860 n         1 MOL     -0.210122
     54 C17        -4.0020    2.0250   -0.1980 c3        1 MOL     -0.193030
     55 C18        -2.7970    2.5110    0.6360 c         1 MOL      0.499061
     56 O9         -1.7020    1.9960    0.5940 o         1 MOL     -0.531149
     57 H25        -3.6210    0.4510   -1.5390 hn        1 MOL      0.230470
     58 H26        -4.8890    2.0190    0.4470 h1        1 MOL      0.112032
     59 H27        -4.0160    2.6980   -1.0470 h1        1 MOL      0.112032
     60 N6         -2.9920    3.6300    1.3260 n         1 MOL     -0.398525
     61 C19        -2.0080    4.5740    1.9720 c3        1 MOL      0.148857
     62 C20        -2.4850    6.0190    1.8400 c         1 MOL      0.474003
     63 O10        -3.6600    6.3330    1.5920 o         1 MOL     -0.532035
     64 C21        -1.8370    4.2740    3.4850 c3        1 MOL     -0.198790
     65 C22        -1.3470    2.8220    3.7160 c         1 MOL      0.635327
     66 O11        -0.0830    2.5360    3.3640 o         1 MOL     -0.616869
     67 O12        -2.0660    2.0150    4.2520 o         1 MOL     -0.616869
     68 H28        -3.9780    3.8500    1.3640 hn        1 MOL      0.268216
     69 H29        -1.0410    4.4340    1.4970 h1        1 MOL      0.030921
     70 H30        -2.6650    4.5880    4.1130 hc        1 MOL      0.058745
     71 H31        -1.0150    4.8930    3.8460 hc        1 MOL      0.058745
     72 N7         -1.6120    7.0150    1.9930 n         1 MOL     -0.437912
     73 C23        -0.1300    6.9970    2.0180 c3        1 MOL      0.039981
     74 C24         0.6020    6.2380    0.8970 c         1 MOL      0.461233
     75 O13         0.1080    6.1950   -0.2180 o         1 MOL     -0.447165
     76 H32        -2.0120    7.9420    1.8760 hn        1 MOL      0.309811
     77 H33         0.1480    6.5250    2.9660 h1        1 MOL      0.045311
     78 H34         0.2890    8.0060    2.0940 h1        1 MOL      0.045311
     79 N8          1.8100    5.7670    1.1240 n         1 MOL     -0.445222
     80 C25         2.5570    4.9710    0.0890 c3        1 MOL     -0.083697
     81 C26         1.7540    3.7640   -0.4070 c         1 MOL      0.615672
     82 O14         1.1770    2.9490    0.4160 o         1 MOL     -0.657671
     83 C27         3.8810    4.5410    0.7290 c3        1 MOL      0.273431
     84 C28         4.7290    3.5550   -0.1100 c3        1 MOL     -0.535344
     85 O15         3.7850    3.8450    1.9570 oh        1 MOL     -0.638198
     86 H35         2.3750    6.1820    1.8510 hn        1 MOL      0.335023
     87 H36         2.7250    5.6250   -0.7690 h1        1 MOL      0.089389
     88 H37         4.4000    5.4550    1.0190 h1        1 MOL      0.054967
     89 H38         4.6260    3.4110    2.1060 ho        1 MOL      0.420915
     90 H39         5.7290    3.4450    0.3110 hc        1 MOL      0.145371
     91 H40         4.3610    2.5320   -0.1760 hc        1 MOL      0.145371
     92 H41         4.7180    3.9250   -1.1330 hc        1 MOL      0.145371
     93 N9          1.6830    3.6220   -1.7310 n         1 MOL     -0.414044
     94 C29         0.9570    2.7170   -2.5830 c3        1 MOL     -0.069472
     95 C30         1.1700    1.2420   -2.3170 c         1 MOL      0.618502
     96 O16         0.8640    0.7350   -1.2220 o         1 MOL     -0.534216
     97 C31        -0.5650    3.0870   -2.6670 c3        1 MOL      0.030397
     98 C32        -0.8180    4.4310   -3.3530 c3        1 MOL      0.037892
     99 C33        -1.2890    1.9010   -3.3650 c3        1 MOL     -0.410602
    100 C34        -2.1970    5.0330   -3.0840 c3        1 MOL     -0.221092
    101 H42         2.2250    4.3060   -2.2240 hn        1 MOL      0.285550
    102 H43         1.3950    2.7910   -3.5790 h1        1 MOL      0.042019
    103 H44        -0.8290    3.2500   -1.6240 hc        1 MOL      0.199719
    104 H45        -0.7160    4.1880   -4.4090 hc        1 MOL     -0.004373
    105 H46        -0.0750    5.1940   -3.1120 hc        1 MOL     -0.004373
    106 H47        -2.2560    2.2790   -3.6980 hc        1 MOL      0.113867
    107 H48        -0.6920    1.7110   -4.2630 hc        1 MOL      0.113867
    108 H49        -1.3880    1.0560   -2.6980 hc        1 MOL      0.113867
    109 H50        -2.9130    4.2350   -3.2790 hc        1 MOL      0.065272
    110 H51        -2.2600    5.3410   -2.0410 hc        1 MOL      0.065272
    111 H52        -2.2810    5.9140   -3.7150 hc        1 MOL      0.065272
    112 N10         1.9170    0.5140   -3.2250 n         1 MOL     -0.364492
    113 C35         2.2810   -0.8990   -3.0660 c3        1 MOL     -0.054288
    114 C36         3.7560   -1.0850   -3.2570 c         1 MOL      0.528170
    115 O17         4.2500   -2.1680   -3.3820 o         1 MOL     -0.544957
    116 C37         1.4070   -1.8290   -3.9520 c3        1 MOL      0.381041
    117 C38         1.1540   -1.3140   -5.3460 c3        1 MOL     -0.178247
    118 O18         0.0950   -1.9900   -3.3750 oh        1 MOL     -0.583285
    119 H53         2.2740    0.9870   -4.0470 hn        1 MOL      0.236227
    120 H54         2.0540   -1.2440   -2.0500 h1        1 MOL      0.089994
    121 H55         1.9540   -2.7650   -3.8720 h1        1 MOL     -0.008307
    122 H56         0.2870   -2.0640   -2.4410 ho        1 MOL      0.353298
    123 H57         0.7660   -2.1050   -5.9960 hc        1 MOL      0.035771
    124 H58         0.5440   -0.4130   -5.2780 hc        1 MOL      0.035771
    125 H59         2.0870   -1.0430   -5.8420 hc        1 MOL      0.035771
    126 N11         4.5820   -0.0040   -3.1840 n         1 MOL     -0.264310
    127 C39         6.0370   -0.0950   -3.2220 c3        1 MOL     -0.172729
    128 C40         6.5460   -0.4020   -1.8150 c         1 MOL      0.609808
    129 O19         6.9790    0.4530   -1.0190 o         1 MOL     -0.464655
    130 C41         6.6160    1.2270   -3.7280 c3        1 MOL      0.539098
    131 C42         6.1960    1.4120   -5.1580 c3        1 MOL     -0.542884
    132 O20         6.2490    2.3440   -2.9290 oh        1 MOL     -0.568493
    133 H60         4.1000    0.8840   -3.1400 hn        1 MOL      0.162557
    134 H61         6.4130   -0.9040   -3.8430 h1        1 MOL      0.084270
    135 H62         7.6920    1.1510   -3.6210 h1        1 MOL     -0.052771
    136 H63         6.3720    1.9880   -2.0510 ho        1 MOL      0.285800
    137 H64         7.0130    1.9450   -5.6240 hc        1 MOL      0.138355
    138 H65         6.0360    0.4520   -5.6590 hc        1 MOL      0.138355
    139 H66         5.3190    2.0460   -5.2860 hc        1 MOL      0.138355
    140 N12         6.5740   -1.7570   -1.5320 n         1 MOL     -0.711362
    141 C43         6.5960   -2.3680   -0.2140 c3        1 MOL      0.118775
    142 C44         5.3910   -2.0730    0.6780 c         1 MOL      0.733315
    143 O21         4.6970   -1.0770    0.4630 o         1 MOL     -0.563570
    144 C45         7.9280   -2.0900    0.5040 c3        1 MOL     -0.381730
    145 C46         9.2330   -2.2610   -0.2720 c3        1 MOL      0.157129
    146 C47        10.4280   -1.8390    0.5600 c3        1 MOL     -0.169844
    147 C48        11.7250   -2.4080   -0.0330 c3        1 MOL      0.015471
    148 N13        12.0460   -1.8010   -1.3490 n4        1 MOL     -0.276167
    149 H67         6.1810   -2.3590   -2.2410 hn        1 MOL      0.383153
    150 H68         6.6100   -3.4360   -0.4380 h1        1 MOL      0.065945
    151 H69         8.0150   -2.6740    1.4260 hc        1 MOL      0.111870
    152 H70         7.8810   -1.0520    0.8270 hc        1 MOL      0.111870
    153 H71         9.2690   -1.7550   -1.2350 hc        1 MOL      0.006357
    154 H72         9.2750   -3.3400   -0.4160 hc        1 MOL      0.006357
    155 H73        10.2800   -2.2100    1.5730 hc        1 MOL      0.102030
    156 H74        10.5100   -0.7710    0.3600 hc        1 MOL      0.102030
    157 H75        11.5870   -3.4710   -0.1980 hx        1 MOL      0.085023
    158 H76        12.5130   -2.2240    0.6950 hx        1 MOL      0.085023
    159 H77        11.2390   -1.3030   -1.6990 hn        1 MOL      0.233807
    160 H78        12.8910   -1.2490   -1.3190 hn        1 MOL      0.233807
    161 H79        12.2440   -2.5120   -2.0400 hn        1 MOL      0.233807
    162 N14         5.1110   -2.9350    1.6030 n         1 MOL     -0.648073
    163 C49         3.9450   -2.7840    2.5360 c3        1 MOL      0.257336
    164 C50         2.6570   -2.6300    1.7550 c         1 MOL      0.242478
    165 O22         1.9950   -1.5550    2.0100 o         1 MOL     -0.534205
    166 C51         3.9630   -3.9550    3.5190 c3        1 MOL      0.064462
    167 C52         5.1920   -4.0450    4.4430 c3        1 MOL     -0.089216
    168 C53         5.0520   -5.0970    5.4680 c         1 MOL      0.643810
    169 O23         4.6310   -4.8450    6.6180 o         1 MOL     -0.634518
    170 O24         5.1780   -6.2960    5.0610 o         1 MOL     -0.634518
    171 H80         5.7150   -3.7370    1.6620 hn        1 MOL      0.341443
    172 H81         4.1500   -1.9130    3.1540 h1        1 MOL      0.061527
    173 H82         3.9460   -4.9210    3.0130 hc        1 MOL      0.025376
    174 H83         3.1640   -3.9510    4.2590 hc        1 MOL      0.025376
    175 H84         5.4080   -3.0810    4.9150 hc        1 MOL     -0.035144
    176 H85         6.0690   -4.2850    3.8360 hc        1 MOL     -0.035144
    177 N15         2.2660   -3.3920    0.6880 n         1 MOL     -0.212902
    178 C54         2.8130   -4.7110    0.1610 c3        1 MOL     -0.111327
    179 H86         2.3640   -4.9290   -0.8080 h1        1 MOL      0.063256
    180 H87         3.8950   -4.6390    0.0510 h1        1 MOL      0.063256
    181 H88         2.5700   -5.5110    0.8620 h1        1 MOL      0.063256
    182 H89         1.4070   -3.0820    0.2440 hn        1 MOL      0.322689
    183 Ca1         0.6190    0.6950    1.5420 Ca        1 MOL      1.764036
    184 O25         3.1990    0.9140    1.3460 oh        1 MOL     -0.869537
    185 H90         3.8570    1.5920    1.4660 ho        1 MOL      0.407032
    186 H91         3.6990    0.1140    1.1900 ho        1 MOL      0.407032
    187 O26         1.4600    0.2750    4.1410 oh        1 MOL     -0.869537
    188 H92         1.9320   -0.4500    4.5510 ho        1 MOL      0.407032
    189 H93         1.3690    0.9220    4.8450 ho        1 MOL      0.407032
    190 O27        -1.7530   -0.1150    3.0820 oh        1 MOL     -0.869537
    191 H94        -1.7920    0.6430    3.6650 ho        1 MOL      0.407032
    192 H95        -2.4170    0.0480    2.4220 ho        1 MOL      0.407032
@<TRIPOS>BOND
     1    1    2 1   
     2    1    4 1   
     3    1    5 1   
     4    1    6 1   
     5    2    3 2   
     6    2    7 1   
     7    7    8 1   
     8    7   15 1   
     9    8    9 1   
    10    8   11 1   
    11    8   16 1   
    12    9   10 2   
    13    9   19 1   
    14   11   12 1   
    15   11   17 1   
    16   11   18 1   
    17   12   13 1   
    18   12   14 1   
    19   19   20 1   
    20   19   28 1   
    21   20   21 1   
    22   20   23 1   
    23   20   29 1   
    24   21   22 2   
    25   21   41 1   
    26   23   24 1   
    27   23   30 1   
    28   23   31 1   
    29   24   25 1   
    30   24   32 1   
    31   24   33 1   
    32   25   26 1   
    33   25   34 1   
    34   25   35 1   
    35   26   27 1   
    36   26   36 1   
    37   26   37 1   
    38   27   38 1   
    39   27   39 1   
    40   27   40 1   
    41   41   42 1   
    42   41   49 1   
    43   42   43 1   
    44   42   45 1   
    45   42   50 1   
    46   43   44 2   
    47   43   53 1   
    48   45   46 1   
    49   45   51 1   
    50   45   52 1   
    51   46   47 1   
    52   46   48 1   
    53   53   54 1   
    54   53   57 1   
    55   54   55 1   
    56   54   58 1   
    57   54   59 1   
    58   55   56 2   
    59   55   60 1   
    60   60   61 1   
    61   60   68 1   
    62   61   62 1   
    63   61   64 1   
    64   61   69 1   
    65   62   63 2   
    66   62   72 1   
    67   64   65 1   
    68   64   70 1   
    69   64   71 1   
    70   65   66 1   
    71   65   67 1   
    72   72   73 1   
    73   72   76 1   
    74   73   74 1   
    75   73   77 1   
    76   73   78 1   
    77   74   75 2   
    78   74   79 1   
    79   79   80 1   
    80   79   86 1   
    81   80   81 1   
    82   80   83 1   
    83   80   87 1   
    84   81   82 2   
    85   81   93 1   
    86   83   84 1   
    87   83   85 1   
    88   83   88 1   
    89   84   90 1   
    90   84   91 1   
    91   84   92 1   
    92   85   89 1   
    93   93   94 1   
    94   93  101 1   
    95   94   95 1   
    96   94   97 1   
    97   94  102 1   
    98   95   96 2   
    99   95  112 1   
   100   97   98 1   
   101   97   99 1   
   102   97  103 1   
   103   98  100 1   
   104   98  104 1   
   105   98  105 1   
   106   99  106 1   
   107   99  107 1   
   108   99  108 1   
   109  100  109 1   
   110  100  110 1   
   111  100  111 1   
   112  112  113 1   
   113  112  119 1   
   114  113  114 1   
   115  113  116 1   
   116  113  120 1   
   117  114  115 2   
   118  114  126 1   
   119  116  117 1   
   120  116  118 1   
   121  116  121 1   
   122  117  123 1   
   123  117  124 1   
   124  117  125 1   
   125  118  122 1   
   126  126  127 1   
   127  126  133 1   
   128  127  128 1   
   129  127  130 1   
   130  127  134 1   
   131  128  129 2   
   132  128  140 1   
   133  130  131 1   
   134  130  132 1   
   135  130  135 1   
   136  131  137 1   
   137  131  138 1   
   138  131  139 1   
   139  132  136 1   
   140  140  141 1   
   141  140  149 1   
   142  141  142 1   
   143  141  144 1   
   144  141  150 1   
   145  142  143 2   
   146  142  162 1   
   147  144  145 1   
   148  144  151 1   
   149  144  152 1   
   150  145  146 1   
   151  145  153 1   
   152  145  154 1   
   153  146  147 1   
   154  146  155 1   
   155  146  156 1   
   156  147  148 1   
   157  147  157 1   
   158  147  158 1   
   159  148  159 1   
   160  148  160 1   
   161  148  161 1   
   162  162  163 1   
   163  162  171 1   
   164  163  164 1   
   165  163  166 1   
   166  163  172 1   
   167  164  165 2   
   168  164  177 1   
   169  166  167 1   
   170  166  173 1   
   171  166  174 1   
   172  167  168 1   
   173  167  175 1   
   174  167  176 1   
   175  168  169 1   
   176  168  170 1   
   177  177  178 1   
   178  177  182 1   
   179  178  179 1   
   180  178  180 1   
   181  178  181 1   
   182  184  185 1   
   183  184  186 1   
   184  187  188 1   
   185  187  189 1   
   186  190  191 1   
   187  190  192 1   
@<TRIPOS>SUBSTRUCTURE
     1 MOL         1 TEMP              0 ****  ****    0 ROOT
