@<TRIPOS>MOLECULE
MOL
  195   189     1     0     0
SMALL
resp


@<TRIPOS>ATOM
      1 C1          3.3140   -3.2260   -3.7210 c3        1 MOL     -0.399488
      2 C2          2.4720   -3.1720   -2.4540 c         1 MOL      0.440040
      3 O1          1.4950   -2.3160   -2.3420 o         1 MOL     -0.471146
      4 H1          3.7660   -2.2500   -3.8990 hc        1 MOL      0.112131
      5 H2          4.1010   -3.9730   -3.6040 hc        1 MOL      0.112131
      6 H3          2.6820   -3.4930   -4.5670 hc        1 MOL      0.112131
      7 N1          2.6820   -4.0970   -1.5390 n         1 MOL     -0.066006
      8 C3          2.0960   -4.1150   -0.2150 c3        1 MOL     -0.470578
      9 C4          0.5190   -4.1720   -0.0750 c         1 MOL      0.852313
     10 O2         -0.1150   -3.4920    0.6960 o         1 MOL     -0.611527
     11 C5          2.7280   -3.1500    0.7690 c3        1 MOL     -0.037000
     12 C6          4.2380   -3.3160    0.8010 c         1 MOL      0.395706
     13 O3          4.6880   -4.1960    1.4960 o         1 MOL     -0.556721
     14 O4          4.9920   -2.5680    0.1480 o         1 MOL     -0.556721
     15 H4          3.5030   -4.6620   -1.7460 hn        1 MOL      0.171534
     16 H5          2.3720   -5.0790    0.2080 h1        1 MOL      0.090968
     17 H6          2.2890   -3.3620    1.7400 hc        1 MOL      0.092222
     18 H7          2.4290   -2.1110    0.6290 hc        1 MOL      0.092222
     19 N2         -0.0520   -4.8360   -1.0910 n         1 MOL     -0.346122
     20 C7         -1.4630   -4.8200   -1.4400 c3        1 MOL     -0.349563
     21 C8         -2.3000   -5.6630   -0.4660 c         1 MOL      0.540433
     22 O5         -1.7110   -6.6520   -0.0440 o         1 MOL     -0.574428
     23 C9         -1.7430   -5.1950   -2.8970 c3        1 MOL      0.081572
     24 C10        -1.5030   -6.6860   -3.1620 c3        1 MOL      0.053125
     25 C11        -0.9150   -4.2810   -3.8380 c3        1 MOL     -0.198950
     26 C12        -1.9840   -7.0590   -4.4900 c3        1 MOL     -0.104192
     27 H8          0.5610   -5.4390   -1.6290 hn        1 MOL      0.217631
     28 H9         -1.6950   -3.7570   -1.3520 h1        1 MOL      0.088795
     29 H10        -2.7900   -5.0110   -3.1260 hc        1 MOL      0.087086
     30 H11        -2.0120   -7.3690   -2.4860 hc        1 MOL      0.019863
     31 H12        -0.4400   -6.9420   -3.1790 hc        1 MOL      0.019863
     32 H13         0.1210   -4.4250   -3.5560 hc        1 MOL      0.061069
     33 H14        -1.0770   -4.2550   -4.9090 hc        1 MOL      0.061069
     34 H15        -1.2570   -3.2740   -3.5890 hc        1 MOL      0.061069
     35 H16        -3.0260   -6.7470   -4.6340 hc        1 MOL      0.001944
     36 H17        -1.4130   -6.5990   -5.2900 hc        1 MOL      0.001944
     37 H18        -1.7540   -8.0900   -4.7660 hc        1 MOL      0.001944
     38 N3         -3.5550   -5.3380   -0.1010 n         1 MOL     -0.404977
     39 C13        -4.2560   -4.0240   -0.3220 c3        1 MOL      0.172401
     40 C14        -4.1140   -2.9960    0.7740 c         1 MOL      0.452915
     41 O6         -4.2830   -1.8310    0.4950 o         1 MOL     -0.545033
     42 C15        -5.7090   -4.3510   -0.6390 c3        1 MOL     -0.388788
     43 C16        -6.3350   -5.2980    0.4500 c         1 MOL      0.786389
     44 O7         -5.6970   -5.7400    1.4250 o         1 MOL     -0.701054
     45 O8         -7.5330   -5.6610    0.3980 o         1 MOL     -0.701054
     46 H19        -4.0580   -6.0700    0.3730 hn        1 MOL      0.263502
     47 H20        -3.9810   -3.5860   -1.2760 h1        1 MOL      0.059180
     48 H21        -5.7350   -4.8760   -1.5880 hc        1 MOL      0.072114
     49 H22        -6.2940   -3.4280   -0.7520 hc        1 MOL      0.072114
     50 N4         -3.8430   -3.4500    1.9800 n         1 MOL     -0.180493
     51 C17        -3.9030   -2.4440    3.1140 c3        1 MOL     -0.303077
     52 C18        -5.3710   -2.1150    3.4110 c         1 MOL      0.674214
     53 O9         -6.2240   -2.9790    3.5250 o         1 MOL     -0.551950
     54 H23        -3.7120   -4.4370    2.1300 hn        1 MOL      0.271385
     55 H24        -3.4440   -1.4650    2.9780 h1        1 MOL      0.126514
     56 H25        -3.4990   -2.8220    4.0550 h1        1 MOL      0.126514
     57 N5         -5.6360   -0.8220    3.5920 n         1 MOL     -0.560804
     58 C19        -7.0160   -0.4180    3.7760 c3        1 MOL      0.121393
     59 C20        -7.8560   -0.2790    2.4450 c         1 MOL      0.374810
     60 O10        -9.0470    0.0790    2.4700 o         1 MOL     -0.575164
     61 C21        -6.9330    0.9400    4.4840 c3        1 MOL     -0.195782
     62 C22        -5.9560    1.9530    3.8710 c         1 MOL      0.742308
     63 O11        -5.5670    1.8280    2.7030 o         1 MOL     -0.714241
     64 O12        -5.7120    2.9810    4.5680 o         1 MOL     -0.714241
     65 H26        -4.9370   -0.2540    3.1410 hn        1 MOL      0.281293
     66 H27        -7.5610   -1.0970    4.4340 h1        1 MOL      0.078662
     67 H28        -6.7240    0.7800    5.5460 hc        1 MOL      0.022768
     68 H29        -7.9010    1.4390    4.4570 hc        1 MOL      0.022768
     69 N6         -7.1610   -0.4760    1.3470 n         1 MOL     -0.051667
     70 C23        -7.7160   -0.4540   -0.0380 c3        1 MOL     -0.244334
     71 C24        -7.5850    0.9430   -0.6560 c         1 MOL      0.709097
     72 O13        -7.7630    1.0090   -1.8410 o         1 MOL     -0.613397
     73 H30        -6.2860   -0.9560    1.4960 hn        1 MOL      0.150157
     74 H31        -8.7680   -0.7500   -0.0730 h1        1 MOL      0.116340
     75 H32        -7.1500   -1.1860   -0.6210 h1        1 MOL      0.116340
     76 N7         -7.1210    1.9810    0.0310 n         1 MOL     -0.629523
     77 C25        -6.8860    3.4290   -0.3600 c3        1 MOL      0.192512
     78 C26        -6.1330    3.6550   -1.6790 c         1 MOL      0.481389
     79 O14        -6.4020    4.6600   -2.3050 o         1 MOL     -0.506840
     80 C27        -8.2060    4.2470   -0.4020 c3        1 MOL      0.149516
     81 C28        -8.9900    4.1090    0.9090 c3        1 MOL     -0.341721
     82 C29        -8.3590    4.8770    2.0290 c         1 MOL      0.812784
     83 N8         -8.6790    4.6550    3.3160 n         1 MOL     -0.952632
     84 O15        -7.6680    5.8050    1.7800 o         1 MOL     -0.576961
     85 H33        -6.9530    1.8180    1.0170 hn        1 MOL      0.334709
     86 H34        -6.2350    3.8450    0.4010 h1        1 MOL      0.061025
     87 H35        -8.8430    3.9030   -1.2180 hc        1 MOL     -0.011797
     88 H36        -7.8980    5.2730   -0.5850 hc        1 MOL     -0.011797
     89 H37        -9.0390    3.0680    1.2200 hc        1 MOL      0.066283
     90 H38        -9.9850    4.5500    0.8110 hc        1 MOL      0.066283
     91 H39        -9.3070    3.8890    3.4970 hn        1 MOL      0.402736
     92 H40        -8.2380    5.2090    4.0330 hn        1 MOL      0.402736
     93 N9         -5.2120    2.7440   -2.0680 n         1 MOL     -0.446465
     94 C30        -4.3490    2.8930   -3.2640 c3        1 MOL     -0.091914
     95 C31        -2.9290    2.5120   -3.0580 c         1 MOL      0.590271
     96 O16        -2.1220    2.8030   -4.0040 o         1 MOL     -0.594479
     97 C32        -5.0280    2.2260   -4.4450 c3        1 MOL      0.334406
     98 C33        -5.0850    0.6760   -4.4280 c3        1 MOL     -0.266433
     99 C34        -6.4370    2.7570   -4.7300 c3        1 MOL     -0.266433
    100 H41        -5.1030    1.8750   -1.5620 hn        1 MOL      0.270710
    101 H42        -4.3040    3.9440   -3.5470 h1        1 MOL      0.115014
    102 H43        -4.4440    2.3950   -5.3570 hc        1 MOL     -0.057191
    103 H44        -4.1040    0.2330   -4.5670 hc        1 MOL      0.052300
    104 H45        -5.3800    0.3280   -3.4360 hc        1 MOL      0.052300
    105 H46        -5.7340    0.2510   -5.1930 hc        1 MOL      0.052300
    106 H47        -6.7880    2.4260   -5.7080 hc        1 MOL      0.052300
    107 H48        -7.1050    2.4910   -3.9190 hc        1 MOL      0.052300
    108 H49        -6.3000    3.8390   -4.6760 hc        1 MOL      0.052300
    109 N10        -2.5210    1.9310   -1.9700 n         1 MOL     -0.442520
    110 C35        -1.2190    1.3410   -1.7770 c3        1 MOL      0.158791
    111 C36        -0.4100    2.1340   -0.7340 c         1 MOL      0.527549
    112 O17        -1.0040    2.6980    0.2000 o         1 MOL     -0.521417
    113 C37        -1.2540   -0.1270   -1.3850 c3        1 MOL     -0.033998
    114 C38        -2.1060   -0.8130   -2.4070 c         1 MOL      0.544883
    115 N11        -3.2240   -1.3050   -2.0890 n         1 MOL     -0.448466
    116 O18        -1.6710   -0.8400   -3.5100 o         1 MOL     -0.583229
    117 H50        -3.0970    1.6970   -1.1780 hn        1 MOL      0.244186
    118 H51        -0.7470    1.3740   -2.7630 h1        1 MOL      0.051010
    119 H52        -1.5790   -0.2120   -0.3440 hc        1 MOL      0.041019
    120 H53        -0.2060   -0.4010   -1.5090 hc        1 MOL      0.041019
    121 H54        -3.5770   -1.1610   -1.1430 hn        1 MOL      0.258514
    122 H55        -3.6700   -1.8450   -2.8140 hn        1 MOL      0.258514
    123 N12         0.9350    2.0620   -0.7580 n         1 MOL     -0.584061
    124 C39         1.8690    2.4600    0.3080 c3        1 MOL      0.313763
    125 C40         3.1080    3.0870   -0.2620 c         1 MOL      0.476986
    126 O19         3.6600    2.5410   -1.1990 o         1 MOL     -0.600244
    127 C41         2.3520    1.3200    1.2360 c3        1 MOL     -0.194466
    128 C42         3.2730    1.7080    2.3910 ca        1 MOL      0.079798
    129 C43         4.6400    1.2750    2.3360 ca        1 MOL     -0.201616
    130 C44         2.8440    2.3470    3.6380 ca        1 MOL     -0.201616
    131 C45         5.5450    1.6330    3.3380 ca        1 MOL     -0.234559
    132 C46         3.8140    2.8670    4.5480 ca        1 MOL     -0.234559
    133 C47         5.1340    2.4760    4.4390 ca        1 MOL      0.359163
    134 O20         6.0320    2.6960    5.4250 oh        1 MOL     -0.548076
    135 H56         1.4070    1.7090   -1.5840 hn        1 MOL      0.307552
    136 H57         1.4530    3.2540    0.9210 h1        1 MOL      0.019752
    137 H58         2.8010    0.4900    0.6860 hc        1 MOL      0.067096
    138 H59         1.4760    1.0570    1.8160 hc        1 MOL      0.067096
    139 H60         4.9200    0.5710    1.5670 ha        1 MOL      0.155198
    140 H61         1.7910    2.5740    3.6960 ha        1 MOL      0.155198
    141 H62         6.5460    1.2250    3.3440 ha        1 MOL      0.147120
    142 H63         3.4770    3.4170    5.4180 ha        1 MOL      0.147120
    143 H64         6.8830    2.3500    5.1630 ho        1 MOL      0.389596
    144 N13         3.6110    4.2390    0.2410 n         1 MOL     -0.434229
    145 C48         4.8100    4.9170   -0.2610 c3        1 MOL      0.116872
    146 C49         6.1160    4.6390    0.5230 c         1 MOL      0.531608
    147 O21         6.3700    5.2170    1.5660 o         1 MOL     -0.561492
    148 C50         4.3700    6.3570   -0.3920 c3        1 MOL      0.098334
    149 C51         5.3350    7.2940   -1.1530 c3        1 MOL     -0.238992
    150 C52         4.8030    8.7250   -1.1260 c         1 MOL      0.744766
    151 O22         3.6120    8.9880   -1.2540 o         1 MOL     -0.682431
    152 O23         5.6890    9.6080   -1.0580 o         1 MOL     -0.682431
    153 H65         2.9880    4.6960    0.8980 hn        1 MOL      0.255601
    154 H66         4.9760    4.6720   -1.3040 h1        1 MOL      0.105195
    155 H67         4.1310    6.8360    0.5590 hc        1 MOL     -0.010996
    156 H68         3.4390    6.3760   -0.9500 hc        1 MOL     -0.010996
    157 H69         5.4510    6.9090   -2.1740 hc        1 MOL      0.033352
    158 H70         6.3300    7.2930   -0.7150 hc        1 MOL      0.033352
    159 N14         6.9300    3.5950    0.2930 n         1 MOL     -0.513900
    160 C53         6.7700    2.5910   -0.7620 c3        1 MOL      0.150864
    161 C54         6.7720    3.0810   -2.1870 c         1 MOL      0.498303
    162 O24         7.2820    4.1580   -2.4450 o         1 MOL     -0.547897
    163 C55         7.9210    1.5140   -0.6650 c3        1 MOL     -0.404913
    164 C56         7.8150    0.6550    0.6400 c3        1 MOL      0.344266
    165 C57         8.7260   -0.6070    0.6150 c         1 MOL      0.567516
    166 O25         9.8400   -0.5780    0.0050 o         1 MOL     -0.692566
    167 O26         8.3460   -1.4870    1.3460 o         1 MOL     -0.692566
    168 H71         7.6130    3.4110    1.0150 hn        1 MOL      0.306278
    169 H72         5.8300    2.0740   -0.5340 h1        1 MOL      0.090595
    170 H73         8.8200    2.1250   -0.7260 hc        1 MOL      0.081031
    171 H74         7.9760    0.8620   -1.5350 hc        1 MOL      0.081031
    172 H75         6.7590    0.3870    0.7080 hc        1 MOL     -0.100319
    173 H76         8.0680    1.2460    1.5120 hc        1 MOL     -0.100319
    174 N15         6.1490    2.3190   -3.0560 n         1 MOL     -0.244582
    175 C58         5.9640    2.6310   -4.5070 c3        1 MOL     -0.209007
    176 H77         6.9370    2.6770   -4.9950 h1        1 MOL      0.095824
    177 H78         5.3610    1.8520   -4.9720 h1        1 MOL      0.095824
    178 H79         5.4600    3.5920   -4.6110 h1        1 MOL      0.095824
    179 H80         5.8090    1.4150   -2.7610 hn        1 MOL      0.240451
    180 Ca1         7.2910   -3.8460    0.9880 Ca        1 MOL      1.656339
    181 O27         9.2980   -5.2260   -0.2850 oh        1 MOL     -0.849109
    182 H81         9.4410   -5.7180   -1.0930 ho        1 MOL      0.393439
    183 H82         9.8110   -5.6940    0.3770 ho        1 MOL      0.393439
    184 O28         7.6730   -2.7190   -1.3330 oh        1 MOL     -0.849109
    185 O29         7.2420   -6.2760    2.1730 oh        1 MOL     -0.849109
    186 H83         7.3750   -2.9550   -2.2160 ho        1 MOL      0.393439
    187 H84         8.1390   -6.5950    2.2690 ho        1 MOL      0.393439
    188 H85         8.6070   -2.5460   -1.4460 ho        1 MOL      0.393439
    189 H86         6.7440   -6.7880    2.7960 ho        1 MOL      0.393439
    190 O30         9.0790   -4.0500    2.8360 oh        1 MOL     -0.849109
    191 H87         8.9950   -3.3620    3.5050 ho        1 MOL      0.393439
    192 H88         9.9960   -4.3300    2.9010 ho        1 MOL      0.393439
    193 O31         6.2220   -3.0840    3.7180 oh        1 MOL     -0.849109
    194 H89         6.3840   -2.3230    4.2730 ho        1 MOL      0.393439
    195 H90         5.3770   -3.4230    4.0190 ho        1 MOL      0.393439
@<TRIPOS>BOND
     1    1    2 1   
     2    1    4 1   
     3    1    5 1   
     4    1    6 1   
     5    2    3 2   
     6    2    7 1   
     7    7    8 1   
     8    7   15 1   
     9    8    9 1   
    10    8   11 1   
    11    8   16 1   
    12    9   10 2   
    13    9   19 1   
    14   11   12 1   
    15   11   17 1   
    16   11   18 1   
    17   12   13 1   
    18   12   14 1   
    19   19   20 1   
    20   19   27 1   
    21   20   21 1   
    22   20   23 1   
    23   20   28 1   
    24   21   22 2   
    25   21   38 1   
    26   23   24 1   
    27   23   25 1   
    28   23   29 1   
    29   24   26 1   
    30   24   30 1   
    31   24   31 1   
    32   25   32 1   
    33   25   33 1   
    34   25   34 1   
    35   26   35 1   
    36   26   36 1   
    37   26   37 1   
    38   38   39 1   
    39   38   46 1   
    40   39   40 1   
    41   39   42 1   
    42   39   47 1   
    43   40   41 2   
    44   40   50 1   
    45   42   43 1   
    46   42   48 1   
    47   42   49 1   
    48   43   44 1   
    49   43   45 1   
    50   50   51 1   
    51   50   54 1   
    52   51   52 1   
    53   51   55 1   
    54   51   56 1   
    55   52   53 2   
    56   52   57 1   
    57   57   58 1   
    58   57   65 1   
    59   58   59 1   
    60   58   61 1   
    61   58   66 1   
    62   59   60 2   
    63   59   69 1   
    64   61   62 1   
    65   61   67 1   
    66   61   68 1   
    67   62   63 1   
    68   62   64 1   
    69   69   70 1   
    70   69   73 1   
    71   70   71 1   
    72   70   74 1   
    73   70   75 1   
    74   71   72 2   
    75   71   76 1   
    76   76   77 1   
    77   76   85 1   
    78   77   78 1   
    79   77   80 1   
    80   77   86 1   
    81   78   79 2   
    82   78   93 1   
    83   80   81 1   
    84   80   87 1   
    85   80   88 1   
    86   81   82 1   
    87   81   89 1   
    88   81   90 1   
    89   82   83 1   
    90   82   84 2   
    91   83   91 1   
    92   83   92 1   
    93   93   94 1   
    94   93  100 1   
    95   94   95 1   
    96   94   97 1   
    97   94  101 1   
    98   95   96 2   
    99   95  109 1   
   100   97   98 1   
   101   97   99 1   
   102   97  102 1   
   103   98  103 1   
   104   98  104 1   
   105   98  105 1   
   106   99  106 1   
   107   99  107 1   
   108   99  108 1   
   109  109  110 1   
   110  109  117 1   
   111  110  111 1   
   112  110  113 1   
   113  110  118 1   
   114  111  112 2   
   115  111  123 1   
   116  113  114 1   
   117  113  119 1   
   118  113  120 1   
   119  114  115 1   
   120  114  116 2   
   121  115  121 1   
   122  115  122 1   
   123  123  124 1   
   124  123  135 1   
   125  124  125 1   
   126  124  127 1   
   127  124  136 1   
   128  125  126 2   
   129  125  144 1   
   130  127  128 1   
   131  127  137 1   
   132  127  138 1   
   133  128  129 ar  
   134  128  130 ar  
   135  129  131 ar  
   136  129  139 1   
   137  130  132 ar  
   138  130  140 1   
   139  131  133 ar  
   140  131  141 1   
   141  132  133 ar  
   142  132  142 1   
   143  133  134 1   
   144  134  143 1   
   145  144  145 1   
   146  144  153 1   
   147  145  146 1   
   148  145  148 1   
   149  145  154 1   
   150  146  147 2   
   151  146  159 1   
   152  148  149 1   
   153  148  155 1   
   154  148  156 1   
   155  149  150 1   
   156  149  157 1   
   157  149  158 1   
   158  150  151 1   
   159  150  152 1   
   160  159  160 1   
   161  159  168 1   
   162  160  161 1   
   163  160  163 1   
   164  160  169 1   
   165  161  162 2   
   166  161  174 1   
   167  163  164 1   
   168  163  170 1   
   169  163  171 1   
   170  164  165 1   
   171  164  172 1   
   172  164  173 1   
   173  165  166 1   
   174  165  167 1   
   175  174  175 1   
   176  174  179 1   
   177  175  176 1   
   178  175  177 1   
   179  175  178 1   
   180  181  182 1   
   181  181  183 1   
   182  184  186 1   
   183  184  188 1   
   184  185  187 1   
   185  185  189 1   
   186  190  191 1   
   187  190  192 1   
   188  193  194 1   
   189  193  195 1   
@<TRIPOS>SUBSTRUCTURE
     1 MOL         1 TEMP              0 ****  ****    0 ROOT
