@<TRIPOS>MOLECULE
MOL
  195   189     1     0     0
SMALL
resp


@<TRIPOS>ATOM
      1 C1          5.3570    1.4590    6.0240 c3        1 MOL     -0.293474
      2 C2          4.9570    1.3340    4.5010 c         1 MOL      0.817745
      3 O1          4.4400    2.2470    3.9260 o         1 MOL     -0.607761
      4 H1          4.5040    1.1880    6.6460 hc        1 MOL      0.065943
      5 H2          6.1890    0.7890    6.2390 hc        1 MOL      0.065943
      6 H3          5.6510    2.4850    6.2400 hc        1 MOL      0.065943
      7 N1          5.0680    0.0950    3.9180 n         1 MOL     -0.875853
      8 C3          4.7560   -0.3450    2.5610 c3        1 MOL      0.849389
      9 C4          3.2520   -0.1590    2.0720 c         1 MOL     -0.332300
     10 O2          2.9840   -0.3320    0.9100 o         1 MOL     -0.109412
     11 C5          5.1500   -1.8200    2.3590 c3        1 MOL     -0.450023
     12 C6          6.4230   -2.2200    3.0530 c         1 MOL      0.832310
     13 O3          6.6020   -2.0600    4.2900 o         1 MOL     -0.728597
     14 O4          7.4390   -2.5570    2.3800 o         1 MOL     -0.728597
     15 H4          5.6710   -0.5470    4.4150 hn        1 MOL      0.366901
     16 H5          5.3440    0.2420    1.8560 h1        1 MOL     -0.036987
     17 H6          5.0590   -1.9850    1.2900 hc        1 MOL     -0.025895
     18 H7          4.3560   -2.4020    2.8290 hc        1 MOL     -0.025895
     19 N2          2.3600    0.1330    3.0140 n         1 MOL      0.018937
     20 C7          0.9020    0.1590    2.8000 c3        1 MOL      0.037812
     21 C8          0.3100    1.5620    2.5190 c         1 MOL      0.442676
     22 O5          0.6630    2.5120    3.2750 o         1 MOL     -0.500344
     23 C9          0.2690   -0.4630    3.9930 c3        1 MOL     -0.059404
     24 C10         0.5970   -1.9250    4.0890 c3        1 MOL      0.030929
     25 C11        -0.4480   -2.6410    5.0130 c3        1 MOL     -0.010988
     26 C12        -0.1830   -4.2090    4.9300 c3        1 MOL      0.078990
     27 N3         -1.1500   -5.0180    5.7170 n4        1 MOL     -0.417005
     28 H8          2.7140    0.4050    3.9160 hn        1 MOL      0.202069
     29 H9          0.6310   -0.5360    1.9970 h1        1 MOL      0.111575
     30 H10        -0.8130   -0.3340    3.9550 hc        1 MOL      0.027850
     31 H11         0.6000    0.0510    4.8940 hc        1 MOL      0.027850
     32 H12         1.5800   -2.0090    4.5670 hc        1 MOL      0.012001
     33 H13         0.5670   -2.4550    3.1360 hc        1 MOL      0.012001
     34 H14        -1.4750   -2.3620    4.7400 hc        1 MOL      0.023051
     35 H15        -0.3330   -2.2810    6.0290 hc        1 MOL      0.023051
     36 H16         0.8380   -4.3110    5.3080 hx        1 MOL      0.068731
     37 H17        -0.1260   -4.5190    3.8900 hx        1 MOL      0.068731
     38 H18        -0.9320   -5.9790    5.4970 hn        1 MOL      0.328696
     39 H19        -1.0150   -4.9940    6.7190 hn        1 MOL      0.328696
     40 H20        -2.0880   -4.7270    5.4680 hn        1 MOL      0.328696
     41 N4         -0.6680    1.7550    1.5770 n         1 MOL     -0.377281
     42 C13        -1.2450    0.7940    0.5880 c3        1 MOL      0.192326
     43 C14        -1.8910   -0.5730    1.0940 c         1 MOL      0.300824
     44 O6         -1.3320   -1.6630    0.9090 o         1 MOL     -0.501476
     45 C15        -0.2910    0.5910   -0.5630 c3        1 MOL     -0.680189
     46 C16         0.2900    1.7300   -1.3380 c         1 MOL      0.885018
     47 O7         -0.1490    2.8620   -1.0680 o         1 MOL     -0.757817
     48 O8          1.2580    1.5370   -2.1290 o         1 MOL     -0.757817
     49 H21        -0.8900    2.7270    1.3710 hn        1 MOL      0.195644
     50 H22        -2.1130    1.2650    0.1220 h1        1 MOL     -0.000284
     51 H23        -0.8090   -0.0760   -1.2530 hc        1 MOL      0.209589
     52 H24         0.5790    0.0140   -0.2300 hc        1 MOL      0.209589
     53 N5         -2.9560   -0.4770    1.8120 n         1 MOL     -0.196877
     54 C17        -3.8720    0.6700    2.0410 c3        1 MOL     -0.063923
     55 C18        -5.1080    0.3500    2.8440 c         1 MOL      0.437500
     56 O9         -5.4090   -0.7860    3.2750 o         1 MOL     -0.528672
     57 H25        -3.3640   -1.3260    2.1780 hn        1 MOL      0.231462
     58 H26        -4.1980    1.0030    1.0560 h1        1 MOL      0.059195
     59 H27        -3.2540    1.4360    2.5120 h1        1 MOL      0.059195
     60 N6         -5.8980    1.3150    3.2050 n         1 MOL     -0.293523
     61 C19        -5.9220    2.7360    2.6750 c3        1 MOL     -0.014423
     62 C20        -6.2650    2.6940    1.1920 c         1 MOL      0.516865
     63 O10        -6.9870    1.8290    0.7250 o         1 MOL     -0.446807
     64 C21        -7.0490    3.6130    3.3250 c3        1 MOL     -0.236601
     65 C22        -8.4920    3.1130    3.2640 c         1 MOL      0.730157
     66 O11        -8.8050    2.0970    3.9400 o         1 MOL     -0.678347
     67 O12        -9.3490    3.7930    2.6440 o         1 MOL     -0.678347
     68 H28        -6.5330    1.1060    3.9700 hn        1 MOL      0.274257
     69 H29        -4.9520    3.2380    2.6740 h1        1 MOL      0.007674
     70 H30        -7.1150    4.5570    2.7820 hc        1 MOL      0.050971
     71 H31        -6.7710    3.7410    4.3700 hc        1 MOL      0.050971
     72 N7         -5.7470    3.6310    0.4090 n         1 MOL     -0.247843
     73 C23        -6.0430    3.7550   -1.0550 c3        1 MOL     -0.606842
     74 C24        -5.4640    2.7030   -2.0760 c         1 MOL      0.644791
     75 O13        -5.3150    3.0010   -3.2230 o         1 MOL     -0.564529
     76 H32        -5.1980    4.4200    0.7390 hn        1 MOL      0.235386
     77 H33        -5.9510    4.7980   -1.3570 h1        1 MOL      0.242301
     78 H34        -7.1050    3.5140   -1.1390 h1        1 MOL      0.242301
     79 N8         -5.1620    1.5040   -1.5680 n         1 MOL     -0.406152
     80 C25        -4.6750    0.3920   -2.3750 c3        1 MOL      0.131883
     81 C26        -4.9230   -0.8760   -1.5720 c         1 MOL      0.369649
     82 O14        -5.0290   -0.8440   -0.3350 o         1 MOL     -0.354583
     83 C27        -3.1350    0.3950   -2.5140 c3        1 MOL      0.347140
     84 C28        -2.5340    1.6430   -3.1780 c3        1 MOL     -0.469049
     85 O15        -2.7280   -0.7500   -3.3140 oh        1 MOL     -0.601659
     86 H35        -5.4380    1.2990   -0.6240 hn        1 MOL      0.188380
     87 H36        -5.1560    0.3190   -3.3460 h1        1 MOL      0.061769
     88 H37        -2.8220    0.3070   -1.4800 h1        1 MOL      0.033638
     89 H38        -1.8920   -0.9260   -2.8730 ho        1 MOL      0.333056
     90 H39        -1.4870    1.4430   -3.4310 hc        1 MOL      0.133319
     91 H40        -3.1800    1.9980   -3.9760 hc        1 MOL      0.133319
     92 H41        -2.5440    2.3460   -2.3450 hc        1 MOL      0.133319
     93 N9         -5.0890   -2.0230   -2.2030 n         1 MOL     -0.343041
     94 C29        -5.3530   -3.3210   -1.5460 c3        1 MOL      0.015083
     95 C30        -4.1160   -4.0140   -1.0870 c         1 MOL      0.425895
     96 O16        -4.2110   -4.7430   -0.1030 o         1 MOL     -0.499780
     97 C31        -6.2580   -4.1360   -2.4790 c3        1 MOL      0.071793
     98 C32        -7.6230   -3.4750   -2.7250 c3        1 MOL      0.095694
     99 C33        -6.3980   -5.5470   -1.9370 c3        1 MOL     -0.267620
    100 C34        -8.4980   -3.4390   -1.4040 c3        1 MOL     -0.201654
    101 H42        -5.0060   -2.0470   -3.2120 hn        1 MOL      0.245399
    102 H43        -5.9290   -3.0770   -0.6450 h1        1 MOL      0.075702
    103 H44        -5.7870   -4.1780   -3.4580 hc        1 MOL     -0.019881
    104 H45        -8.1300   -4.0010   -3.5340 hc        1 MOL     -0.014119
    105 H46        -7.5250   -2.4620   -3.1090 hc        1 MOL     -0.014119
    106 H47        -6.5790   -5.4830   -0.8640 hc        1 MOL      0.072096
    107 H48        -7.1010   -6.1770   -2.4890 hc        1 MOL      0.072096
    108 H49        -5.4240   -6.0370   -1.9420 hc        1 MOL      0.072096
    109 H50        -9.4420   -2.9090   -1.5530 hc        1 MOL      0.059705
    110 H51        -8.7420   -4.4740   -1.1760 hc        1 MOL      0.059705
    111 H52        -8.0420   -2.8220   -0.6300 hc        1 MOL      0.059705
    112 N10        -2.9680   -3.6180   -1.6450 n         1 MOL     -0.292563
    113 C35        -1.7450   -4.4160   -1.4610 c3        1 MOL      0.025004
    114 C36        -0.6900   -3.3420   -1.5360 c         1 MOL      0.351235
    115 O17        -0.7920   -2.2710   -2.1250 o         1 MOL     -0.357309
    116 C37        -1.6290   -5.5140   -2.4900 c3        1 MOL      0.409638
    117 C38        -2.6590   -6.5980   -2.5570 c3        1 MOL     -0.335842
    118 O18        -0.4590   -6.1800   -2.1310 oh        1 MOL     -0.676205
    119 H53        -2.9450   -2.8730   -2.3230 hn        1 MOL      0.174231
    120 H54        -1.8120   -4.9050   -0.4850 h1        1 MOL      0.080214
    121 H55        -1.5470   -5.0830   -3.4900 h1        1 MOL      0.004495
    122 H56        -0.6030   -7.1050   -2.3350 ho        1 MOL      0.402055
    123 H57        -3.5340   -6.1570   -3.0340 hc        1 MOL      0.084069
    124 H58        -2.3100   -7.4500   -3.1540 hc        1 MOL      0.084069
    125 H59        -3.0470   -6.7590   -1.5490 hc        1 MOL      0.084069
    126 N11         0.5050   -3.6960   -0.9850 n         1 MOL     -0.304979
    127 C39         1.7020   -2.8390   -0.7200 c3        1 MOL      0.022143
    128 C40         2.5030   -2.3070   -1.8960 c         1 MOL      0.306935
    129 O19         2.2260   -2.7020   -3.0230 o         1 MOL     -0.502371
    130 C41         2.6990   -3.6740    0.1370 c3        1 MOL      0.321053
    131 C42         3.0310   -5.0260   -0.4300 c3        1 MOL     -0.546579
    132 O20         2.1500   -3.9780    1.4040 oh        1 MOL     -0.632575
    133 H60         0.6090   -4.6500   -0.6700 hn        1 MOL      0.258578
    134 H61         1.2750   -2.0110   -0.1460 h1        1 MOL      0.125704
    135 H62         3.6430   -3.1370    0.2120 h1        1 MOL      0.132798
    136 H63         2.8480   -4.4050    1.9080 ho        1 MOL      0.393811
    137 H64         3.6960   -5.4510    0.3230 hc        1 MOL      0.135456
    138 H65         2.1510   -5.6570   -0.5710 hc        1 MOL      0.135456
    139 H66         3.5610   -4.9440   -1.3790 hc        1 MOL      0.135456
    140 N12         3.4970   -1.4120   -1.7330 n         1 MOL      0.076338
    141 C43         4.3380   -0.7840   -2.7770 c3        1 MOL     -0.183985
    142 C44         4.7250    0.7030   -2.4670 c         1 MOL      0.687127
    143 O21         5.5220    1.3120   -3.1810 o         1 MOL     -0.632984
    144 C45         5.4860   -1.6660   -3.3210 c3        1 MOL     -0.188523
    145 C46         6.4740   -2.0400   -2.2000 c3        1 MOL      0.008002
    146 C47         7.3330   -3.1930   -2.7310 c3        1 MOL     -0.088866
    147 C48         8.5000   -3.3570   -1.7770 c3        1 MOL      0.113567
    148 N13         9.3130   -4.4870   -2.2880 n4        1 MOL     -0.295903
    149 H67         3.5140   -0.9970   -0.8110 hn        1 MOL     -0.070703
    150 H68         3.6100   -0.7400   -3.5790 h1        1 MOL      0.101006
    151 H69         6.1440   -1.1250   -4.0030 hc        1 MOL      0.093907
    152 H70         5.1160   -2.5480   -3.8480 hc        1 MOL      0.093907
    153 H71         5.9150   -2.3920   -1.3470 hc        1 MOL      0.053498
    154 H72         7.1180   -1.2200   -1.8620 hc        1 MOL      0.053498
    155 H73         7.6240   -3.0110   -3.7660 hc        1 MOL      0.022175
    156 H74         6.6320   -4.0290   -2.7390 hc        1 MOL      0.022175
    157 H75         8.1150   -3.6240   -0.7880 hx        1 MOL      0.070908
    158 H76         9.0580   -2.4170   -1.7950 hx        1 MOL      0.070908
    159 H77         9.5330   -4.3650   -3.2580 hn        1 MOL      0.300283
    160 H78        10.1520   -4.5700   -1.7340 hn        1 MOL      0.300283
    161 H79         8.8720   -5.3970   -2.2130 hn        1 MOL      0.300283
    162 N14         4.3100    1.2430   -1.3150 n         1 MOL     -0.244924
    163 C49         4.7890    2.5240   -0.8840 c3        1 MOL     -0.393344
    164 C50         6.2300    2.4700   -0.3680 c         1 MOL      0.467638
    165 O22         6.5300    1.7240    0.5540 o         1 MOL     -0.493296
    166 C51         3.7510    3.1790    0.0320 c3        1 MOL      0.545071
    167 C52         3.9880    4.5760    0.4400 c3        1 MOL     -0.787783
    168 C53         3.6860    5.7160   -0.5810 c         1 MOL      0.891397
    169 O23         4.6790    6.1040   -1.1690 o         1 MOL     -0.795067
    170 O24         2.4560    6.1200   -0.8010 o         1 MOL     -0.795067
    171 H80         3.5960    0.8070   -0.7470 hn        1 MOL      0.199769
    172 H81         4.8660    3.1410   -1.7790 h1        1 MOL      0.141067
    173 H82         3.7620    2.5050    0.8870 hc        1 MOL     -0.072393
    174 H83         2.7430    3.0280   -0.3670 hc        1 MOL     -0.072393
    175 H84         4.9680    4.7880    0.8630 hc        1 MOL      0.200275
    176 H85         3.2520    4.7050    1.2430 hc        1 MOL      0.200275
    177 N15         7.0640    3.4030   -0.8420 n         1 MOL     -0.325571
    178 C54         8.5140    3.5530   -0.5360 c3        1 MOL      0.084160
    179 H86         9.0490    3.8350   -1.4440 h1        1 MOL      0.022727
    180 H87         8.6490    4.3260    0.2190 h1        1 MOL      0.022727
    181 H88         8.9070    2.6070   -0.1640 h1        1 MOL      0.022727
    182 H89         6.7040    4.0060   -1.5650 hn        1 MOL      0.380674
    183 Ca1         0.2180    5.3190   -1.6610 Ca        1 MOL      1.701558
    184 O25        -1.0790    4.2110   -3.8050 oh        1 MOL     -0.809014
    185 H90        -0.9050    3.6140   -4.5320 ho        1 MOL      0.404213
    186 H91        -1.9900    4.4860   -3.9390 ho        1 MOL      0.404213
    187 O26         1.7320    3.7380   -3.1860 oh        1 MOL     -0.809014
    188 H92         2.2410    3.5720   -3.9770 ho        1 MOL      0.404213
    189 H93         1.6180    2.8740   -2.7930 ho        1 MOL      0.404213
    190 O27         1.2450    6.9750   -3.7830 oh        1 MOL     -0.809014
    191 H94         2.0860    7.0840   -4.2270 ho        1 MOL      0.404213
    192 H95         1.1350    7.7650   -3.2520 ho        1 MOL      0.404213
    193 O28        -2.5060    5.1710   -1.0060 oh        1 MOL     -0.809014
    194 H96        -2.6460    4.4830   -0.3580 ho        1 MOL      0.404213
    195 H97        -3.3820    5.4710   -1.2290 ho        1 MOL      0.404213
@<TRIPOS>BOND
     1    1    2 1   
     2    1    4 1   
     3    1    5 1   
     4    1    6 1   
     5    2    3 2   
     6    2    7 1   
     7    7    8 1   
     8    7   15 1   
     9    8    9 1   
    10    8   11 1   
    11    8   16 1   
    12    9   10 2   
    13    9   19 1   
    14   11   12 1   
    15   11   17 1   
    16   11   18 1   
    17   12   13 1   
    18   12   14 1   
    19   19   20 1   
    20   19   28 1   
    21   20   21 1   
    22   20   23 1   
    23   20   29 1   
    24   21   22 2   
    25   21   41 1   
    26   23   24 1   
    27   23   30 1   
    28   23   31 1   
    29   24   25 1   
    30   24   32 1   
    31   24   33 1   
    32   25   26 1   
    33   25   34 1   
    34   25   35 1   
    35   26   27 1   
    36   26   36 1   
    37   26   37 1   
    38   27   38 1   
    39   27   39 1   
    40   27   40 1   
    41   41   42 1   
    42   41   49 1   
    43   42   43 1   
    44   42   45 1   
    45   42   50 1   
    46   43   44 2   
    47   43   53 1   
    48   45   46 1   
    49   45   51 1   
    50   45   52 1   
    51   46   47 1   
    52   46   48 1   
    53   53   54 1   
    54   53   57 1   
    55   54   55 1   
    56   54   58 1   
    57   54   59 1   
    58   55   56 2   
    59   55   60 1   
    60   60   61 1   
    61   60   68 1   
    62   61   62 1   
    63   61   64 1   
    64   61   69 1   
    65   62   63 2   
    66   62   72 1   
    67   64   65 1   
    68   64   70 1   
    69   64   71 1   
    70   65   66 1   
    71   65   67 1   
    72   72   73 1   
    73   72   76 1   
    74   73   74 1   
    75   73   77 1   
    76   73   78 1   
    77   74   75 2   
    78   74   79 1   
    79   79   80 1   
    80   79   86 1   
    81   80   81 1   
    82   80   83 1   
    83   80   87 1   
    84   81   82 2   
    85   81   93 1   
    86   83   84 1   
    87   83   85 1   
    88   83   88 1   
    89   84   90 1   
    90   84   91 1   
    91   84   92 1   
    92   85   89 1   
    93   93   94 1   
    94   93  101 1   
    95   94   95 1   
    96   94   97 1   
    97   94  102 1   
    98   95   96 2   
    99   95  112 1   
   100   97   98 1   
   101   97   99 1   
   102   97  103 1   
   103   98  100 1   
   104   98  104 1   
   105   98  105 1   
   106   99  106 1   
   107   99  107 1   
   108   99  108 1   
   109  100  109 1   
   110  100  110 1   
   111  100  111 1   
   112  112  113 1   
   113  112  119 1   
   114  113  114 1   
   115  113  116 1   
   116  113  120 1   
   117  114  115 2   
   118  114  126 1   
   119  116  117 1   
   120  116  118 1   
   121  116  121 1   
   122  117  123 1   
   123  117  124 1   
   124  117  125 1   
   125  118  122 1   
   126  126  127 1   
   127  126  133 1   
   128  127  128 1   
   129  127  130 1   
   130  127  134 1   
   131  128  129 2   
   132  128  140 1   
   133  130  131 1   
   134  130  132 1   
   135  130  135 1   
   136  131  137 1   
   137  131  138 1   
   138  131  139 1   
   139  132  136 1   
   140  140  141 1   
   141  140  149 1   
   142  141  142 1   
   143  141  144 1   
   144  141  150 1   
   145  142  143 2   
   146  142  162 1   
   147  144  145 1   
   148  144  151 1   
   149  144  152 1   
   150  145  146 1   
   151  145  153 1   
   152  145  154 1   
   153  146  147 1   
   154  146  155 1   
   155  146  156 1   
   156  147  148 1   
   157  147  157 1   
   158  147  158 1   
   159  148  159 1   
   160  148  160 1   
   161  148  161 1   
   162  162  163 1   
   163  162  171 1   
   164  163  164 1   
   165  163  166 1   
   166  163  172 1   
   167  164  165 2   
   168  164  177 1   
   169  166  167 1   
   170  166  173 1   
   171  166  174 1   
   172  167  168 1   
   173  167  175 1   
   174  167  176 1   
   175  168  169 1   
   176  168  170 1   
   177  177  178 1   
   178  177  182 1   
   179  178  179 1   
   180  178  180 1   
   181  178  181 1   
   182  184  185 1   
   183  184  186 1   
   184  187  188 1   
   185  187  189 1   
   186  190  191 1   
   187  190  192 1   
   188  193  194 1   
   189  193  195 1   
@<TRIPOS>SUBSTRUCTURE
     1 MOL         1 TEMP              0 ****  ****    0 ROOT
