@<TRIPOS>MOLECULE
MOL
  188   182     1     0     0
SMALL
resp


@<TRIPOS>ATOM
      1 C1          6.6460    1.3560   -2.5170 c3        1 MOL     -0.402178
      2 C2          7.2510    0.0640   -2.0050 c         1 MOL      0.729498
      3 O1          6.6070   -0.5450   -1.2050 o         1 MOL     -0.526500
      4 H1          7.1740    1.6730   -3.4170 hc        1 MOL      0.094253
      5 H2          5.5930    1.1980   -2.7500 hc        1 MOL      0.094253
      6 H3          6.7370    2.1280   -1.7530 hc        1 MOL      0.094253
      7 N1          8.5720   -0.1830   -2.2410 n         1 MOL     -0.528484
      8 C3          9.3420   -1.3260   -1.6300 c3        1 MOL     -0.055852
      9 C4          9.4300   -1.3100   -0.1380 c         1 MOL      0.550890
     10 O2          9.7260   -2.3320    0.4900 o         1 MOL     -0.519490
     11 C5          8.7940   -2.6980   -2.1900 c3        1 MOL     -0.263102
     12 C6          9.0260   -2.8880   -3.6830 c         1 MOL      0.745773
     13 O3          9.8990   -2.2670   -4.3030 o         1 MOL     -0.670284
     14 O4          8.3210   -3.7150   -4.2230 o         1 MOL     -0.670284
     15 H4          9.0230    0.4740   -2.8730 hn        1 MOL      0.314460
     16 H5         10.3800   -1.1480   -1.9310 h1        1 MOL      0.102109
     17 H6          7.7460   -2.8210   -1.9260 hc        1 MOL      0.106992
     18 H7          9.2880   -3.5830   -1.8050 hc        1 MOL      0.106992
     19 N2          9.1420   -0.1370    0.5240 n         1 MOL     -0.344466
     20 C7          9.0440    0.0110    1.9930 c3        1 MOL      0.007136
     21 C8          7.6200    0.1490    2.5670 c         1 MOL      0.539391
     22 O5          7.4140    0.4770    3.6780 o         1 MOL     -0.563746
     23 C9          9.9550    1.2510    2.2870 c3        1 MOL     -0.003434
     24 C10         9.4740    2.5210    1.5850 c3        1 MOL      0.077113
     25 C11        10.0370    3.8320    2.0460 c3        1 MOL     -0.045118
     26 C12         9.6180    4.8850    1.0420 c3        1 MOL      0.149125
     27 N3         10.0610    6.2400    1.4340 n4        1 MOL     -0.170811
     28 H8          8.9640    0.6940   -0.0170 hn        1 MOL      0.147663
     29 H9          9.5260   -0.8400    2.4710 h1        1 MOL      0.117456
     30 H10        10.9830    1.0070    2.0050 hc        1 MOL      0.004164
     31 H11         9.9270    1.4140    3.3570 hc        1 MOL      0.004164
     32 H12         8.3850    2.5860    1.5710 hc        1 MOL      0.008054
     33 H13         9.8060    2.3630    0.5610 hc        1 MOL      0.008054
     34 H14        11.1230    3.8200    1.9580 hc        1 MOL      0.028468
     35 H15         9.7000    4.0490    3.0620 hc        1 MOL      0.028468
     36 H16         8.5420    4.8470    0.8760 hx        1 MOL      0.011749
     37 H17        10.0790    4.6710    0.0740 hx        1 MOL      0.011749
     38 H18        11.0630    6.2630    1.5650 hn        1 MOL      0.188923
     39 H19         9.7610    6.7660    0.6310 hn        1 MOL      0.188923
     40 H20         9.5630    6.6490    2.2070 hn        1 MOL      0.188923
     41 N4          6.5260    0.0510    1.8060 n         1 MOL     -0.281699
     42 C13         5.1390    0.0210    2.2810 c3        1 MOL     -0.123024
     43 C14         4.6560   -1.4500    2.6040 c         1 MOL      0.581445
     44 O6          4.9490   -2.3880    1.8700 o         1 MOL     -0.428689
     45 C15         4.2890    0.6950    1.2100 c3        1 MOL      0.014196
     46 C16         2.7980    0.6850    1.7330 c         1 MOL      0.464394
     47 O7          2.4610    1.4840    2.6220 o         1 MOL     -0.656145
     48 O8          1.9770   -0.1460    1.2800 o         1 MOL     -0.656145
     49 H21         6.7510   -0.1330    0.8360 hn        1 MOL      0.168917
     50 H22         5.0320    0.6390    3.1780 h1        1 MOL      0.070397
     51 H23         4.3770    0.1730    0.2540 hc        1 MOL      0.016536
     52 H24         4.6230    1.7040    0.9520 hc        1 MOL      0.016536
     53 N5          3.8600   -1.5760    3.7060 n         1 MOL     -0.337524
     54 C17         3.4380   -2.8740    4.2720 c3        1 MOL     -0.311310
     55 C18         2.6510   -3.7940    3.2520 c         1 MOL      0.489782
     56 O9          2.7700   -5.0260    3.4490 o         1 MOL     -0.528904
     57 H25         3.6450   -0.7700    4.2810 hn        1 MOL      0.279821
     58 H26         2.8900   -2.6280    5.1730 h1        1 MOL      0.158928
     59 H27         4.3560   -3.4400    4.4390 h1        1 MOL      0.158928
     60 N6          1.9800   -3.3100    2.2470 n         1 MOL     -0.064192
     61 C19         1.1460   -3.9880    1.2160 c3        1 MOL     -0.091793
     62 C20         1.5020   -3.4970   -0.1880 c         1 MOL      0.512793
     63 O10         0.8590   -3.9130   -1.1370 o         1 MOL     -0.523049
     64 C21        -0.3280   -4.0620    1.5290 c3        1 MOL     -0.248723
     65 C22        -1.0800   -2.7390    1.5730 c         1 MOL      0.672388
     66 N7         -2.3290   -2.8800    1.7960 n         1 MOL     -0.759593
     67 O11        -0.5400   -1.6830    1.2210 o         1 MOL     -0.647002
     68 H28         1.8940   -2.3040    2.2110 hn        1 MOL     -0.039154
     69 H29         1.5660   -4.9920    1.1620 h1        1 MOL      0.126823
     70 H30        -0.3620   -4.4650    2.5360 hc        1 MOL      0.116683
     71 H31        -0.8040   -4.7140    0.7920 hc        1 MOL      0.116683
     72 H32        -2.6850   -3.7550    2.1470 hn        1 MOL      0.364093
     73 H33        -2.8990   -2.0460    1.7640 hn        1 MOL      0.364093
     74 N8          2.5780   -2.7490   -0.3090 n         1 MOL     -0.078765
     75 C23         3.1110   -2.3730   -1.6230 c3        1 MOL     -0.235992
     76 C24         2.4200   -1.3010   -2.4130 c         1 MOL      0.688018
     77 O12         2.4310   -1.3660   -3.6010 o         1 MOL     -0.508568
     78 H34         2.9340   -2.3960    0.5650 hn        1 MOL      0.050888
     79 H35         3.0770   -3.3200   -2.1690 h1        1 MOL      0.129033
     80 H36         4.1090   -2.0090   -1.3820 h1        1 MOL      0.129033
     81 N9          1.7010   -0.3480   -1.7750 n         1 MOL     -0.777282
     82 C25         0.8920    0.6990   -2.3480 c3        1 MOL      0.356485
     83 C26        -0.4430    0.9840   -1.5780 c         1 MOL      0.263204
     84 O13        -0.5280    0.9290   -0.3530 o         1 MOL     -0.507544
     85 C27         1.6960    1.9720   -2.3480 c3        1 MOL     -0.196315
     86 C28         1.1090    3.3740   -2.6080 ca        1 MOL      0.127571
     87 C29         0.2760    3.6670   -3.7200 ca        1 MOL     -0.273471
     88 C30         1.4170    4.3540   -1.6410 ca        1 MOL     -0.273471
     89 C31        -0.3330    4.9180   -3.7700 ca        1 MOL     -0.134834
     90 C32         0.7810    5.6110   -1.7410 ca        1 MOL     -0.134834
     91 C33         0.0420    5.9300   -2.8290 ca        1 MOL      0.289385
     92 O14        -0.3910    7.1570   -2.9490 oh        1 MOL     -0.470684
     93 H37         1.7440   -0.3920   -0.7650 hn        1 MOL      0.474452
     94 H38         0.6220    0.4360   -3.3690 h1        1 MOL      0.009162
     95 H39         2.5390    1.7630   -3.0210 hc        1 MOL      0.079126
     96 H40         1.9850    2.0810   -1.3060 hc        1 MOL      0.079126
     97 H41         0.1330    2.9810   -4.5470 ha        1 MOL      0.160746
     98 H42         1.9120    4.1040   -0.7070 ha        1 MOL      0.160746
     99 H43        -1.0660    5.0370   -4.5630 ha        1 MOL      0.088616
    100 H44         0.9630    6.3470   -0.9720 ha        1 MOL      0.088616
    101 H45        -0.0820    7.8820   -2.3920 ho        1 MOL      0.378466
    102 N10        -1.5400    1.1970   -2.3050 n         1 MOL     -0.150846
    103 C34        -2.9460    1.3260   -1.7970 c3        1 MOL     -0.011086
    104 C35        -3.4010   -0.1710   -1.4790 c         1 MOL      0.253157
    105 O15        -4.0790   -0.4050   -0.4880 o         1 MOL     -0.502883
    106 C36        -3.9050    1.8970   -2.8690 c3        1 MOL     -0.169989
    107 C37        -3.4690    3.3470   -3.1760 c3        1 MOL      0.147858
    108 C38        -5.3990    1.8220   -2.3970 c3        1 MOL     -0.335607
    109 C39        -3.3850    4.3370   -1.9570 c3        1 MOL     -0.070407
    110 H46        -1.4570    1.2930   -3.3050 hn        1 MOL      0.198245
    111 H47        -2.9790    1.8310   -0.8340 h1        1 MOL      0.126698
    112 H48        -3.9140    1.2180   -3.7180 hc        1 MOL      0.032289
    113 H49        -4.1840    3.7180   -3.9170 hc        1 MOL      0.013081
    114 H50        -2.4710    3.2480   -3.6090 hc        1 MOL      0.013081
    115 H51        -6.1090    2.1990   -3.1250 hc        1 MOL      0.122447
    116 H52        -5.6710    0.7740   -2.2530 hc        1 MOL      0.122447
    117 H53        -5.5310    2.4790   -1.5340 hc        1 MOL      0.122447
    118 H54        -3.2430    5.3410   -2.3780 hc        1 MOL      0.007738
    119 H55        -4.3180    4.3420   -1.4080 hc        1 MOL      0.007738
    120 H56        -2.4840    4.1260   -1.3850 hc        1 MOL      0.007738
    121 N11        -2.9500   -1.0870   -2.3460 n         1 MOL      0.069098
    122 C40        -3.1080   -2.5430   -2.2440 c3        1 MOL     -0.455772
    123 C41        -4.5560   -3.0250   -2.4030 c         1 MOL      0.434395
    124 O16        -4.9210   -4.1550   -1.9940 o         1 MOL     -0.500251
    125 C42        -2.2070   -3.2490   -3.2240 c3        1 MOL      0.290992
    126 O17        -0.8750   -2.6890   -3.1590 oh        1 MOL     -0.598466
    127 H57        -2.4470   -0.7220   -3.1380 hn        1 MOL      0.160001
    128 H58        -2.7610   -2.8090   -1.2490 h1        1 MOL      0.238651
    129 H59        -2.5950   -3.0230   -4.2130 h1        1 MOL      0.040757
    130 H60        -2.1500   -4.3210   -3.1100 h1        1 MOL      0.040757
    131 H61        -0.4350   -2.9100   -2.3410 ho        1 MOL      0.387125
    132 N12        -5.3960   -2.1940   -2.9930 n         1 MOL     -0.233107
    133 C43        -6.7300   -2.4370   -3.4450 c3        1 MOL      0.057465
    134 C44        -7.7810   -2.4520   -2.2790 c         1 MOL      0.448487
    135 O18        -8.9940   -2.6290   -2.5500 o         1 MOL     -0.544921
    136 C45        -6.8020   -3.6800   -4.3080 c3        1 MOL     -0.380616
    137 H62        -5.0010   -1.3250   -3.3290 hn        1 MOL      0.212595
    138 H63        -7.0100   -1.5870   -4.0670 h1        1 MOL      0.094779
    139 H64        -6.7990   -4.6320   -3.7800 hc        1 MOL      0.121640
    140 H65        -7.6520   -3.6060   -4.9810 hc        1 MOL      0.121640
    141 H66        -5.9200   -3.7400   -4.9470 hc        1 MOL      0.121640
    142 N13        -7.3620   -2.1210   -1.1180 n         1 MOL     -0.435673
    143 C46        -8.2330   -1.8180    0.0050 c3        1 MOL      0.536918
    144 C47        -8.4640   -0.3430    0.3150 c         1 MOL      0.285862
    145 O19        -7.6350    0.5640   -0.0620 o         1 MOL     -0.528201
    146 C48        -7.6480   -2.6080    1.2030 c3        1 MOL     -0.242928
    147 H67        -6.4170   -1.8220   -0.9450 hn        1 MOL      0.257178
    148 H68        -9.2250   -2.2350   -0.1740 h1        1 MOL     -0.035630
    149 H69        -6.6730   -2.1550    1.3710 hc        1 MOL      0.054946
    150 H70        -8.2910   -2.4210    2.0630 hc        1 MOL      0.054946
    151 H71        -7.5990   -3.6630    0.9110 hc        1 MOL      0.054946
    152 N14        -9.5020   -0.0360    1.0710 n         1 MOL     -0.360702
    153 C49       -10.0040    1.1620    1.6050 c3        1 MOL     -0.165076
    154 C50       -10.2340    2.3350    0.6250 c         1 MOL      0.466999
    155 O20       -10.1850    3.4820    1.0630 o         1 MOL     -0.505586
    156 C51        -9.1770    1.6170    2.8400 c3        1 MOL      0.193571
    157 C52        -9.1640    0.6310    4.0480 c3        1 MOL     -0.280708
    158 C53       -10.5720    0.3050    4.5630 c         1 MOL      0.741174
    159 O21       -11.2670    1.2740    4.9440 o         1 MOL     -0.664013
    160 O22       -11.0960   -0.8600    4.5400 o         1 MOL     -0.664013
    161 H72       -10.0300   -0.8350    1.3950 hn        1 MOL      0.271372
    162 H73       -10.9790    0.9630    2.0640 h1        1 MOL      0.131867
    163 H74        -9.7390    2.4530    3.2700 hc        1 MOL      0.015089
    164 H75        -8.2360    2.1220    2.6430 hc        1 MOL      0.015089
    165 H76        -8.6060    1.1230    4.8370 hc        1 MOL      0.006847
    166 H77        -8.7190   -0.2910    3.6840 hc        1 MOL      0.006847
    167 N15       -10.4750    2.0370   -0.6790 n         1 MOL     -0.255609
    168 C54       -10.6950    3.0360   -1.7700 c3        1 MOL     -0.123913
    169 H78        -9.7340    3.4370   -2.0940 h1        1 MOL      0.082045
    170 H79       -11.1890    2.5510   -2.6130 h1        1 MOL      0.082045
    171 H80       -11.3200    3.8470   -1.4000 h1        1 MOL      0.082045
    172 H81       -10.5590    1.0450   -0.8210 hn        1 MOL      0.217718
    173 Ca1        -0.1860    0.7830    2.2790 Ca        1 MOL      1.761180
    174 O23        -2.0590   -0.3320    3.6970 oh        1 MOL     -0.818378
    175 O24         0.7080   -0.8820    4.1810 oh        1 MOL     -0.818378
    176 H82        -2.2710   -1.2600    3.7520 ho        1 MOL      0.413157
    177 H83         0.7220   -1.8340    4.3280 ho        1 MOL      0.413157
    178 H84        -2.7980    0.1160    4.1120 ho        1 MOL      0.413157
    179 H85         1.3040   -0.5300    4.8350 ho        1 MOL      0.413157
    180 O25         0.0830    2.1680    4.5450 oh        1 MOL     -0.818378
    181 H86        -0.1040    1.8240    5.4210 ho        1 MOL      0.413157
    182 H87         0.4270    3.0570    4.7050 ho        1 MOL      0.413157
    183 O26        -2.5290    2.1150    2.2500 oh        1 MOL     -0.818378
    184 H88        -3.3950    1.7260    2.1000 ho        1 MOL      0.413157
    185 H89        -2.7140    2.8950    2.7790 ho        1 MOL      0.413157
    186 O27         0.3880    3.5410    1.5480 oh        1 MOL     -0.818378
    187 H90         1.1940    3.9640    1.8480 ho        1 MOL      0.413157
    188 H91        -0.0270    4.1820    0.9800 ho        1 MOL      0.413157
@<TRIPOS>BOND
     1    1    2 1   
     2    1    4 1   
     3    1    5 1   
     4    1    6 1   
     5    2    3 2   
     6    2    7 1   
     7    7    8 1   
     8    7   15 1   
     9    8    9 1   
    10    8   11 1   
    11    8   16 1   
    12    9   10 2   
    13    9   19 1   
    14   11   12 1   
    15   11   17 1   
    16   11   18 1   
    17   12   13 1   
    18   12   14 1   
    19   19   20 1   
    20   19   28 1   
    21   20   21 1   
    22   20   23 1   
    23   20   29 1   
    24   21   22 2   
    25   21   41 1   
    26   23   24 1   
    27   23   30 1   
    28   23   31 1   
    29   24   25 1   
    30   24   32 1   
    31   24   33 1   
    32   25   26 1   
    33   25   34 1   
    34   25   35 1   
    35   26   27 1   
    36   26   36 1   
    37   26   37 1   
    38   27   38 1   
    39   27   39 1   
    40   27   40 1   
    41   41   42 1   
    42   41   49 1   
    43   42   43 1   
    44   42   45 1   
    45   42   50 1   
    46   43   44 2   
    47   43   53 1   
    48   45   46 1   
    49   45   51 1   
    50   45   52 1   
    51   46   47 1   
    52   46   48 1   
    53   53   54 1   
    54   53   57 1   
    55   54   55 1   
    56   54   58 1   
    57   54   59 1   
    58   55   56 2   
    59   55   60 1   
    60   60   61 1   
    61   60   68 1   
    62   61   62 1   
    63   61   64 1   
    64   61   69 1   
    65   62   63 2   
    66   62   74 1   
    67   64   65 1   
    68   64   70 1   
    69   64   71 1   
    70   65   66 1   
    71   65   67 2   
    72   66   72 1   
    73   66   73 1   
    74   74   75 1   
    75   74   78 1   
    76   75   76 1   
    77   75   79 1   
    78   75   80 1   
    79   76   77 2   
    80   76   81 1   
    81   81   82 1   
    82   81   93 1   
    83   82   83 1   
    84   82   85 1   
    85   82   94 1   
    86   83   84 2   
    87   83  102 1   
    88   85   86 1   
    89   85   95 1   
    90   85   96 1   
    91   86   87 ar  
    92   86   88 ar  
    93   87   89 ar  
    94   87   97 1   
    95   88   90 ar  
    96   88   98 1   
    97   89   91 ar  
    98   89   99 1   
    99   90   91 ar  
   100   90  100 1   
   101   91   92 1   
   102   92  101 1   
   103  102  103 1   
   104  102  110 1   
   105  103  104 1   
   106  103  106 1   
   107  103  111 1   
   108  104  105 2   
   109  104  121 1   
   110  106  107 1   
   111  106  108 1   
   112  106  112 1   
   113  107  109 1   
   114  107  113 1   
   115  107  114 1   
   116  108  115 1   
   117  108  116 1   
   118  108  117 1   
   119  109  118 1   
   120  109  119 1   
   121  109  120 1   
   122  121  122 1   
   123  121  127 1   
   124  122  123 1   
   125  122  125 1   
   126  122  128 1   
   127  123  124 2   
   128  123  132 1   
   129  125  126 1   
   130  125  129 1   
   131  125  130 1   
   132  126  131 1   
   133  132  133 1   
   134  132  137 1   
   135  133  134 1   
   136  133  136 1   
   137  133  138 1   
   138  134  135 2   
   139  134  142 1   
   140  136  139 1   
   141  136  140 1   
   142  136  141 1   
   143  142  143 1   
   144  142  147 1   
   145  143  144 1   
   146  143  146 1   
   147  143  148 1   
   148  144  145 2   
   149  144  152 1   
   150  146  149 1   
   151  146  150 1   
   152  146  151 1   
   153  152  153 1   
   154  152  161 1   
   155  153  154 1   
   156  153  156 1   
   157  153  162 1   
   158  154  155 2   
   159  154  167 1   
   160  156  157 1   
   161  156  163 1   
   162  156  164 1   
   163  157  158 1   
   164  157  165 1   
   165  157  166 1   
   166  158  159 1   
   167  158  160 1   
   168  167  168 1   
   169  167  172 1   
   170  168  169 1   
   171  168  170 1   
   172  168  171 1   
   173  174  176 1   
   174  174  178 1   
   175  175  177 1   
   176  175  179 1   
   177  180  181 1   
   178  180  182 1   
   179  183  184 1   
   180  183  185 1   
   181  186  187 1   
   182  186  188 1   
@<TRIPOS>SUBSTRUCTURE
     1 MOL         1 TEMP              0 ****  ****    0 ROOT
