@<TRIPOS>MOLECULE
MOL
  187   181     1     0     0
SMALL
resp


@<TRIPOS>ATOM
      1 C1          6.4890    5.9750   -3.9770 c3        1 MOL     -0.316079
      2 C2          6.4200    4.4510   -3.9920 c         1 MOL      0.589503
      3 O1          5.4100    3.9510   -4.4840 o         1 MOL     -0.529692
      4 H1          7.4520    6.2910   -3.5780 hc        1 MOL      0.080100
      5 H2          6.3750    6.3540   -4.9920 hc        1 MOL      0.080100
      6 H3          5.6890    6.3700   -3.3490 hc        1 MOL      0.080100
      7 N1          7.4610    3.6700   -3.5540 n         1 MOL     -0.414353
      8 C3          8.5190    4.0630   -2.6530 c3        1 MOL      0.168793
      9 C4          8.0720    4.1840   -1.1930 c         1 MOL      0.452269
     10 O2          6.9110    3.9600   -0.8860 o         1 MOL     -0.416680
     11 C5          9.6720    3.0740   -2.7410 c3        1 MOL     -0.456623
     12 C6          9.3010    1.6650   -2.3120 c         1 MOL      0.819383
     13 O3          9.0990    0.7790   -3.1620 o         1 MOL     -0.691660
     14 O4          9.2740    1.5040   -1.1080 o         1 MOL     -0.691660
     15 H4          7.2010    2.7110   -3.6930 hn        1 MOL      0.206352
     16 H5          8.8700    5.0460   -2.9800 h1        1 MOL      0.044705
     17 H6         10.5230    3.4480   -2.1740 hc        1 MOL      0.094405
     18 H7         10.0580    2.9870   -3.7590 hc        1 MOL      0.094405
     19 N2          9.0020    4.4720   -0.3040 n         1 MOL     -0.582926
     20 C7          8.6900    4.6570    1.1220 c3        1 MOL      0.336523
     21 C8          8.0950    3.4740    1.9570 c         1 MOL      0.303095
     22 O5          7.7440    3.7110    3.1210 o         1 MOL     -0.520688
     23 C9          7.9210    5.9520    1.2800 c3        1 MOL     -0.308558
     24 H8          9.9560    4.6120   -0.6000 hn        1 MOL      0.298022
     25 H9          9.6170    4.7360    1.6940 h1        1 MOL      0.008628
     26 H10         8.3060    6.7850    0.6930 hc        1 MOL      0.083231
     27 H11         6.8460    5.8380    1.1660 hc        1 MOL      0.083231
     28 H12         8.0820    6.1810    2.3340 hc        1 MOL      0.083231
     29 N3          7.9060    2.2690    1.3910 n         1 MOL     -0.034326
     30 C10         7.2780    1.1850    2.0980 c3        1 MOL     -0.001320
     31 C11         8.0460   -0.1470    2.0580 c         1 MOL      0.346121
     32 O6          8.4560   -0.4790    0.9400 o         1 MOL     -0.454082
     33 C12         5.7800    0.9040    1.7280 c3        1 MOL      0.312731
     34 C13         5.3740    0.9280    0.2940 c         1 MOL      0.448637
     35 O7          4.1530    1.0520    0.0550 o         1 MOL     -0.617644
     36 O8          6.2360    0.7240   -0.5820 o         1 MOL     -0.617644
     37 H13         8.3310    2.0850    0.4930 hn        1 MOL      0.074371
     38 H14         7.4070    1.3870    3.1590 h1        1 MOL     -0.015840
     39 H15         5.2810    1.6930    2.2810 hc        1 MOL     -0.065086
     40 H16         5.4310   -0.0330    2.1590 hc        1 MOL     -0.065086
     41 N4          8.1200   -0.9550    3.1510 n         1 MOL     -0.395993
     42 C14         8.3320   -2.3850    3.0290 c3        1 MOL     -0.144665
     43 C15         7.1630   -3.3220    3.2390 c         1 MOL      0.500905
     44 O9          7.3000   -4.5340    2.9900 o         1 MOL     -0.520555
     45 H17         7.7870   -0.5030    3.9860 hn        1 MOL      0.302238
     46 H18         9.0940   -2.6920    3.7430 h1        1 MOL      0.112202
     47 H19         8.6530   -2.6300    2.0080 h1        1 MOL      0.112202
     48 N5          5.9460   -2.8210    3.7400 n         1 MOL     -0.429807
     49 C16         4.6520   -3.4730    3.6600 c3        1 MOL      0.213102
     50 C17         3.8720   -3.0700    2.4150 c         1 MOL      0.529576
     51 O10         4.3470   -2.2660    1.6040 o         1 MOL     -0.497395
     52 C18         3.8660   -3.3650    4.9440 c3        1 MOL     -0.233295
     53 C19         4.5840   -3.7960    6.2240 c         1 MOL      0.635823
     54 N6          4.7320   -2.8630    7.1360 n         1 MOL     -0.793055
     55 O11         5.0550   -4.9210    6.3340 o         1 MOL     -0.548300
     56 H20         5.9480   -1.8570    4.0430 hn        1 MOL      0.247760
     57 H21         4.7720   -4.5370    3.4630 h1        1 MOL      0.054102
     58 H22         3.0690   -4.1100    4.8870 hc        1 MOL      0.069134
     59 H23         3.3680   -2.4200    5.1650 hc        1 MOL      0.069134
     60 H24         4.3270   -1.9580    6.9660 hn        1 MOL      0.377196
     61 H25         5.3240   -3.1280    7.9110 hn        1 MOL      0.377196
     62 N7          2.7210   -3.7520    2.1920 n         1 MOL     -0.495773
     63 C20         1.8420   -3.2720    1.1370 c3        1 MOL      0.139667
     64 C21         0.4760   -3.9520    1.0440 c         1 MOL      0.521370
     65 O12         0.2680   -4.9860    1.7410 o         1 MOL     -0.547500
     66 H26         2.3030   -4.3740    2.8760 hn        1 MOL      0.277340
     67 H27         2.3130   -3.4160    0.1680 h1        1 MOL      0.034987
     68 H28         1.6590   -2.2060    1.2070 h1        1 MOL      0.034987
     69 N8         -0.5350   -3.5640    0.2500 n         1 MOL     -0.459757
     70 C22        -0.5440   -2.6310   -0.8870 c3        1 MOL     -0.093583
     71 C23        -1.9960   -2.2040   -0.9900 c         1 MOL      0.514765
     72 O13        -2.9450   -2.9280   -0.7450 o         1 MOL     -0.466452
     73 C24        -0.1760   -3.3000   -2.2070 c3        1 MOL      0.363364
     74 C25        -0.1140   -2.4200   -3.4860 c3        1 MOL     -0.445326
     75 O14         1.0510   -4.0140   -2.1370 oh        1 MOL     -0.631239
     76 H29        -1.3730   -4.0890    0.4280 hn        1 MOL      0.311277
     77 H30         0.1030   -1.7640   -0.7580 h1        1 MOL      0.120412
     78 H31        -0.8950   -4.1070   -2.3120 h1        1 MOL      0.036031
     79 H32         1.0720   -4.4890   -2.9620 ho        1 MOL      0.383760
     80 H33        -1.1180   -2.1240   -3.7820 hc        1 MOL      0.118456
     81 H34         0.4320   -1.4950   -3.3030 hc        1 MOL      0.118456
     82 H35         0.5000   -2.8640   -4.2690 hc        1 MOL      0.118456
     83 N9         -2.2350   -0.9070   -1.4180 n         1 MOL     -0.431484
     84 C26        -3.5350   -0.2510   -1.7670 c3        1 MOL     -0.111859
     85 C27        -3.8670   -0.6580   -3.2090 c         1 MOL      0.554812
     86 O15        -3.1990   -0.2050   -4.1210 o         1 MOL     -0.593828
     87 C28        -3.3070    1.3170   -1.6550 c3        1 MOL      0.355988
     88 C29        -3.0110    1.7480   -0.2470 c3        1 MOL     -0.174332
     89 C30        -4.5940    1.9700   -2.1380 c3        1 MOL     -0.337621
     90 C31        -2.4330    3.1990   -0.1550 c3        1 MOL     -0.241281
     91 H36        -1.4200   -0.3120   -1.5170 hn        1 MOL      0.263997
     92 H37        -4.2940   -0.5230   -1.0320 h1        1 MOL      0.079845
     93 H38        -2.4870    1.6290   -2.2940 hc        1 MOL     -0.046331
     94 H39        -2.2790    1.0840    0.1910 hc        1 MOL      0.072153
     95 H40        -3.9940    1.7440    0.2320 hc        1 MOL      0.072153
     96 H41        -4.4640    3.0340   -1.9420 hc        1 MOL      0.079951
     97 H42        -4.7070    1.7930   -3.2060 hc        1 MOL      0.079951
     98 H43        -5.4670    1.6900   -1.5450 hc        1 MOL      0.079951
     99 H44        -1.9410    3.4270    0.7930 hc        1 MOL      0.068841
    100 H45        -1.5970    3.3680   -0.8320 hc        1 MOL      0.068841
    101 H46        -3.2160    3.9210   -0.3840 hc        1 MOL      0.068841
    102 N10        -4.7440   -1.5800   -3.4150 n         1 MOL     -0.360172
    103 C32        -5.6090   -2.2550   -2.4060 c3        1 MOL      0.058483
    104 C33        -6.8830   -1.4030   -2.1520 c         1 MOL      0.638964
    105 O16        -7.0390   -0.2980   -2.7090 o         1 MOL     -0.564608
    106 C34        -5.8950   -3.7000   -2.8660 c3        1 MOL     -0.117955
    107 C35        -6.1750   -4.0010   -4.3030 c         1 MOL      0.713317
    108 O17        -6.3530   -5.1660   -4.6030 o         1 MOL     -0.719941
    109 O18        -6.3400   -3.1010   -5.1570 o         1 MOL     -0.719941
    110 H47        -5.0440   -1.6290   -4.3850 hn        1 MOL      0.262757
    111 H48        -5.0250   -2.2810   -1.4820 h1        1 MOL      0.066174
    112 H49        -6.6790   -4.2100   -2.3050 hc        1 MOL      0.003328
    113 H50        -5.0460   -4.3130   -2.5560 hc        1 MOL      0.003328
    114 N11        -7.7640   -1.8230   -1.2410 n         1 MOL     -0.658947
    115 C36        -8.9940   -1.2230   -0.7750 c3        1 MOL      0.334155
    116 C37        -9.1570   -1.7120    0.6730 c         1 MOL      0.406427
    117 O19        -9.0140   -2.9530    0.9390 o         1 MOL     -0.526643
    118 C38       -10.1570   -1.6800   -1.6710 c3        1 MOL     -0.217695
    119 C39       -11.3980   -0.8870   -1.3940 ca        1 MOL      0.060916
    120 C40       -12.3620   -1.4560   -0.5890 ca        1 MOL     -0.156865
    121 C41       -11.5820    0.3890   -1.9530 ca        1 MOL     -0.156865
    122 C42       -13.5680   -0.7130   -0.3370 ca        1 MOL     -0.110074
    123 C43       -12.6950    1.1940   -1.5870 ca        1 MOL     -0.110074
    124 C44       -13.7280    0.6000   -0.7630 ca        1 MOL     -0.136362
    125 H51        -7.6160   -2.7290   -0.8290 hn        1 MOL      0.292566
    126 H52        -8.8140   -0.1500   -0.7960 h1        1 MOL     -0.007758
    127 H53       -10.3230   -2.7450   -1.4950 hc        1 MOL      0.107269
    128 H54        -9.7780   -1.5300   -2.6830 hc        1 MOL      0.107269
    129 H55       -12.2070   -2.4360   -0.1660 ha        1 MOL      0.135404
    130 H56       -10.8490    0.8210   -2.6260 ha        1 MOL      0.135404
    131 H57       -14.3400   -1.1840    0.2570 ha        1 MOL      0.100919
    132 H58       -12.8760    2.2050   -1.9180 ha        1 MOL      0.100919
    133 H59       -14.5920    1.1730   -0.4750 ha        1 MOL      0.105997
    134 N12        -9.3990   -0.7920    1.6170 n         1 MOL     -0.217712
    135 C45        -9.8600    0.6300    1.3880 c3        1 MOL      0.241265
    136 C46        -8.6930    1.5640    1.4720 c         1 MOL      0.543942
    137 O20        -7.6160    1.2160    0.9960 o         1 MOL     -0.531236
    138 C47       -10.9660    0.8600    2.4440 c3        1 MOL     -0.132125
    139 C48       -11.0520   -0.4510    3.2620 c3        1 MOL     -0.194177
    140 C49        -9.6320   -1.0410    3.0500 c3        1 MOL      0.028993
    141 H60       -10.3760    0.8540    0.4540 h1        1 MOL     -0.000120
    142 H61       -10.7520    1.6510    3.1490 hc        1 MOL      0.046921
    143 H62       -11.9330    0.9600    1.9420 hc        1 MOL      0.046921
    144 H63       -11.1690   -0.1040    4.2880 hc        1 MOL      0.067862
    145 H64       -11.7740   -1.1000    2.7720 hc        1 MOL      0.067862
    146 H65        -8.8950   -0.5550    3.6890 h1        1 MOL      0.069654
    147 H66        -9.7270   -2.1000    3.2840 h1        1 MOL      0.069654
    148 N13        -8.8690    2.7430    1.9550 n         1 MOL     -0.664195
    149 C50        -7.6960    3.7060    1.9610 c3        1 MOL      0.630847
    150 C51        -8.2460    5.1820    2.0150 c         1 MOL      0.299547
    151 O21        -8.0410    5.9410    2.9620 o         1 MOL     -0.489212
    152 C52        -6.7030    3.4200    3.1320 c3        1 MOL     -0.151855
    153 C53        -5.2610    3.8370    2.8480 c3        1 MOL     -0.044311
    154 C54        -4.3680    3.8370    4.1360 c         1 MOL      0.730768
    155 O22        -3.8230    4.8750    4.4530 o         1 MOL     -0.723856
    156 O23        -4.2280    2.7670    4.8070 o         1 MOL     -0.723856
    157 H67        -9.7030    3.0350    2.4490 hn        1 MOL      0.246926
    158 H68        -7.1200    3.4740    1.0630 h1        1 MOL      0.001744
    159 H69        -6.6430    2.3350    3.2450 hc        1 MOL      0.016927
    160 H70        -7.0120    3.9400    4.0430 hc        1 MOL      0.016927
    161 H71        -5.2240    4.7630    2.2880 hc        1 MOL     -0.038778
    162 H72        -4.7740    3.0900    2.2200 hc        1 MOL     -0.038778
    163 N14        -8.8590    5.7000    0.9170 n         1 MOL     -0.388690
    164 C55        -8.8670    5.0510   -0.3530 c3        1 MOL     -0.079228
    165 H73        -9.8970    4.8870   -0.6700 h1        1 MOL      0.055386
    166 H74        -8.3570    5.6770   -1.0850 h1        1 MOL      0.055386
    167 H75        -8.3560    4.0920   -0.2750 h1        1 MOL      0.055386
    168 H76        -9.1020    6.6760    0.9690 hn        1 MOL      0.289249
    169 Ca1         7.9320   -0.9810   -1.6730 Ca        1 MOL      1.644709
    170 O24        10.5270   -1.3270   -0.9210 oh        1 MOL     -0.759655
    171 H77        11.0230   -0.5110   -0.8850 ho        1 MOL      0.374309
    172 H78        10.5000   -1.6230   -0.0010 ho        1 MOL      0.374309
    173 O25         6.3590   -2.2190   -3.5270 oh        1 MOL     -0.759655
    174 H79         6.3710   -2.6450   -4.3840 ho        1 MOL      0.374309
    175 H80         5.5420   -2.5010   -3.1240 ho        1 MOL      0.374309
    176 O26         9.1150   -2.5920   -3.9390 oh        1 MOL     -0.759655
    177 H81         8.8610   -3.5090   -3.8290 ho        1 MOL      0.374309
    178 H82         8.8840   -2.3840   -4.8510 ho        1 MOL      0.374309
    179 O27         6.1090   -2.4000   -0.3150 oh        1 MOL     -0.759655
    180 H83         5.8620   -3.3110   -0.4690 ho        1 MOL      0.374309
    181 H84         5.3610   -2.0280    0.1520 ho        1 MOL      0.374309
    182 O28         8.5570   -3.5080   -1.1660 oh        1 MOL     -0.759655
    183 H85         7.8020   -4.0720   -0.9590 ho        1 MOL      0.374309
    184 H86         9.2250   -3.7660   -0.5370 ho        1 MOL      0.374309
    185 O29         5.8680    0.9890   -3.2540 oh        1 MOL     -0.759655
    186 H87         4.9670    1.1380   -3.5490 ho        1 MOL      0.374309
    187 H88         5.8220    1.0740   -2.2950 ho        1 MOL      0.374309
@<TRIPOS>BOND
     1    1    2 1   
     2    1    4 1   
     3    1    5 1   
     4    1    6 1   
     5    2    3 2   
     6    2    7 1   
     7    7    8 1   
     8    7   15 1   
     9    8    9 1   
    10    8   11 1   
    11    8   16 1   
    12    9   10 2   
    13    9   19 1   
    14   11   12 1   
    15   11   17 1   
    16   11   18 1   
    17   12   13 1   
    18   12   14 1   
    19   19   20 1   
    20   19   24 1   
    21   20   21 1   
    22   20   23 1   
    23   20   25 1   
    24   21   22 2   
    25   21   29 1   
    26   23   26 1   
    27   23   27 1   
    28   23   28 1   
    29   29   30 1   
    30   29   37 1   
    31   30   31 1   
    32   30   33 1   
    33   30   38 1   
    34   31   32 2   
    35   31   41 1   
    36   33   34 1   
    37   33   39 1   
    38   33   40 1   
    39   34   35 1   
    40   34   36 1   
    41   41   42 1   
    42   41   45 1   
    43   42   43 1   
    44   42   46 1   
    45   42   47 1   
    46   43   44 2   
    47   43   48 1   
    48   48   49 1   
    49   48   56 1   
    50   49   50 1   
    51   49   52 1   
    52   49   57 1   
    53   50   51 2   
    54   50   62 1   
    55   52   53 1   
    56   52   58 1   
    57   52   59 1   
    58   53   54 1   
    59   53   55 2   
    60   54   60 1   
    61   54   61 1   
    62   62   63 1   
    63   62   66 1   
    64   63   64 1   
    65   63   67 1   
    66   63   68 1   
    67   64   65 2   
    68   64   69 1   
    69   69   70 1   
    70   69   76 1   
    71   70   71 1   
    72   70   73 1   
    73   70   77 1   
    74   71   72 2   
    75   71   83 1   
    76   73   74 1   
    77   73   75 1   
    78   73   78 1   
    79   74   80 1   
    80   74   81 1   
    81   74   82 1   
    82   75   79 1   
    83   83   84 1   
    84   83   91 1   
    85   84   85 1   
    86   84   87 1   
    87   84   92 1   
    88   85   86 2   
    89   85  102 1   
    90   87   88 1   
    91   87   89 1   
    92   87   93 1   
    93   88   90 1   
    94   88   94 1   
    95   88   95 1   
    96   89   96 1   
    97   89   97 1   
    98   89   98 1   
    99   90   99 1   
   100   90  100 1   
   101   90  101 1   
   102  102  103 1   
   103  102  110 1   
   104  103  104 1   
   105  103  106 1   
   106  103  111 1   
   107  104  105 2   
   108  104  114 1   
   109  106  107 1   
   110  106  112 1   
   111  106  113 1   
   112  107  108 1   
   113  107  109 1   
   114  114  115 1   
   115  114  125 1   
   116  115  116 1   
   117  115  118 1   
   118  115  126 1   
   119  116  117 2   
   120  116  134 1   
   121  118  119 1   
   122  118  127 1   
   123  118  128 1   
   124  119  120 ar  
   125  119  121 ar  
   126  120  122 ar  
   127  120  129 1   
   128  121  123 ar  
   129  121  130 1   
   130  122  124 ar  
   131  122  131 1   
   132  123  124 ar  
   133  123  132 1   
   134  124  133 1   
   135  134  135 1   
   136  134  140 1   
   137  135  136 1   
   138  135  138 1   
   139  135  141 1   
   140  136  137 2   
   141  136  148 1   
   142  138  139 1   
   143  138  142 1   
   144  138  143 1   
   145  139  140 1   
   146  139  144 1   
   147  139  145 1   
   148  140  146 1   
   149  140  147 1   
   150  148  149 1   
   151  148  157 1   
   152  149  150 1   
   153  149  152 1   
   154  149  158 1   
   155  150  151 2   
   156  150  163 1   
   157  152  153 1   
   158  152  159 1   
   159  152  160 1   
   160  153  154 1   
   161  153  161 1   
   162  153  162 1   
   163  154  155 1   
   164  154  156 1   
   165  163  164 1   
   166  163  168 1   
   167  164  165 1   
   168  164  166 1   
   169  164  167 1   
   170  170  171 1   
   171  170  172 1   
   172  173  174 1   
   173  173  175 1   
   174  176  177 1   
   175  176  178 1   
   176  179  180 1   
   177  179  181 1   
   178  182  183 1   
   179  182  184 1   
   180  185  186 1   
   181  185  187 1   
@<TRIPOS>SUBSTRUCTURE
     1 MOL         1 TEMP              0 ****  ****    0 ROOT
