@<TRIPOS>MOLECULE
MOL
  178   175     1     0     0
SMALL
resp


@<TRIPOS>ATOM
      1 C1          1.7970   -3.4600    4.3730 c3        1 MOL     -0.281204
      2 C2          3.1940   -3.6780    3.7640 c         1 MOL      0.593843
      3 O1          3.9700   -2.7090    3.6280 o         1 MOL     -0.591855
      4 H1          1.6930   -4.0690    5.2710 hc        1 MOL      0.070251
      5 H2          1.6730   -2.4080    4.6320 hc        1 MOL      0.070251
      6 H3          1.0350   -3.7490    3.6480 hc        1 MOL      0.070251
      7 N1          3.5350   -4.9470    3.4660 n         1 MOL     -0.490253
      8 C3          4.8310   -5.3080    2.7620 c3        1 MOL      0.122243
      9 C4          4.7810   -4.5730    1.4180 c         1 MOL      0.577742
     10 O2          3.7490   -4.5150    0.7630 o         1 MOL     -0.512445
     11 C5          4.8270   -6.7930    2.5560 c3        1 MOL     -0.233406
     12 C6          3.8100   -7.3600    1.5840 c         1 MOL      0.668771
     13 O3          4.0970   -7.4460    0.3430 o         1 MOL     -0.678001
     14 O4          2.6380   -7.4270    1.9950 o         1 MOL     -0.678001
     15 H4          2.8200   -5.6300    3.6750 hn        1 MOL      0.270558
     16 H5          5.6710   -5.0790    3.4190 h1        1 MOL      0.051321
     17 H6          4.7440   -7.2940    3.5230 hc        1 MOL      0.036657
     18 H7          5.8470   -7.0530    2.2750 hc        1 MOL      0.036657
     19 N2          5.9460   -4.0580    0.9590 n         1 MOL     -0.637173
     20 C7          6.2270   -3.6260   -0.4270 c3        1 MOL      0.490253
     21 C8          5.4880   -2.2210   -0.7590 c         1 MOL      0.406203
     22 O5          5.0960   -1.4820    0.1700 o         1 MOL     -0.514653
     23 C9          7.7120   -3.5920   -0.6540 c3        1 MOL     -0.453738
     24 H8          6.7440   -4.1590    1.5610 hn        1 MOL      0.293956
     25 H9          5.7460   -4.3310   -1.0990 h1        1 MOL      0.024658
     26 H10         8.1070   -4.5290   -0.2650 hc        1 MOL      0.098246
     27 H11         8.0200   -3.4360   -1.6890 hc        1 MOL      0.098246
     28 H12         8.0640   -2.7400   -0.0670 hc        1 MOL      0.098246
     29 N3          5.2700   -1.9670   -2.0590 n         1 MOL     -0.670864
     30 C10         4.3450   -0.9360   -2.5100 c3        1 MOL      0.376052
     31 C11         5.0530    0.4250   -2.9020 c         1 MOL      0.417009
     32 O6          4.4780    1.1920   -3.6920 o         1 MOL     -0.510174
     33 C12         3.3710   -1.5160   -3.4750 c3        1 MOL     -0.229654
     34 C13         2.8920   -2.9100   -3.0580 c         1 MOL      0.784476
     35 O7          3.5550   -3.9260   -3.5340 o         1 MOL     -0.736247
     36 O8          1.9080   -3.0320   -2.3070 o         1 MOL     -0.736247
     37 H13         5.6830   -2.5240   -2.7830 hn        1 MOL      0.316821
     38 H14         3.7680   -0.6470   -1.6250 h1        1 MOL      0.011556
     39 H15         3.9920   -1.5680   -4.3660 hc        1 MOL      0.033933
     40 H16         2.5660   -0.8070   -3.6400 hc        1 MOL      0.033933
     41 N4          6.2930    0.5610   -2.4620 n         1 MOL     -0.397250
     42 C14         7.3050    1.6220   -2.7650 c3        1 MOL     -0.027136
     43 C15         7.0120    3.0050   -2.3090 c         1 MOL      0.628532
     44 O9          7.8450    3.7050   -1.8030 o         1 MOL     -0.592858
     45 H17         6.6450   -0.0620   -1.7540 hn        1 MOL      0.320460
     46 H18         7.7200    1.7560   -3.7630 h1        1 MOL      0.054073
     47 H19         8.0960    1.2960   -2.0850 h1        1 MOL      0.054073
     48 N5          5.7930    3.5690   -2.5870 n         1 MOL     -0.423606
     49 C16         5.3200    4.7930   -1.9200 c3        1 MOL      0.304901
     50 C17         4.4660    4.3610   -0.6660 c         1 MOL      0.412071
     51 O10         3.7540    3.3970   -0.7900 o         1 MOL     -0.416925
     52 C18         4.5640    5.8250   -2.7650 c3        1 MOL     -0.293925
     53 C19         5.5800    6.3050   -3.7990 c         1 MOL      0.505976
     54 N6          6.5700    7.1160   -3.4740 n         1 MOL     -0.585977
     55 O11         5.5180    5.8610   -4.9500 o         1 MOL     -0.516489
     56 H20         5.0540    3.0440   -3.0410 hn        1 MOL      0.252768
     57 H21         6.1900    5.3790   -1.6260 h1        1 MOL     -0.051238
     58 H22         4.1680    6.6460   -2.1740 hc        1 MOL      0.106648
     59 H23         3.7660    5.4400   -3.3960 hc        1 MOL      0.106648
     60 H24         6.5500    7.4640   -2.5290 hn        1 MOL      0.299173
     61 H25         7.1070    7.6440   -4.1390 hn        1 MOL      0.299173
     62 N7          4.4230    5.1920    0.4160 n         1 MOL     -0.432120
     63 C20         3.5010    5.1470    1.5800 c3        1 MOL     -0.109776
     64 C21         2.0220    5.6060    1.3330 c         1 MOL      0.436019
     65 O12         1.4750    5.4320    0.1850 o         1 MOL     -0.431276
     66 H26         5.0300    5.9980    0.4990 hn        1 MOL      0.265913
     67 H27         3.8760    5.7800    2.3810 h1        1 MOL      0.101478
     68 H28         3.4880    4.1480    2.0120 h1        1 MOL      0.101478
     69 N8          1.4740    6.3530    2.3140 n         1 MOL     -0.318638
     70 C22         0.1310    6.9030    2.2240 c3        1 MOL     -0.301518
     71 C23        -0.9260    5.7970    2.4250 c         1 MOL      0.590188
     72 O13        -1.9940    6.0270    1.9240 o         1 MOL     -0.565119
     73 C24        -0.1010    8.0100    3.2390 c3        1 MOL      0.537433
     74 C25        -0.2230    7.5360    4.6670 c3        1 MOL     -0.344701
     75 O14         0.7530    9.0830    3.1070 oh        1 MOL     -0.654586
     76 H29         2.1270    6.6470    3.0310 hn        1 MOL      0.217651
     77 H30         0.0940    7.4310    1.2720 h1        1 MOL      0.153908
     78 H31        -1.1110    8.3570    3.0080 h1        1 MOL      0.011474
     79 H32         1.6210    8.8310    3.4220 ho        1 MOL      0.387905
     80 H33         0.3700    6.6420    4.8440 hc        1 MOL      0.072827
     81 H34         0.0820    8.2690    5.4180 hc        1 MOL      0.072827
     82 H35        -1.2620    7.2620    4.8160 hc        1 MOL      0.072827
     83 N9         -0.6530    4.6630    3.0110 n         1 MOL     -0.323919
     84 C26        -1.6380    3.5940    3.1380 c3        1 MOL      0.037439
     85 C27        -1.2320    2.3790    2.2050 c         1 MOL      0.556731
     86 O15        -0.0560    1.9550    2.1670 o         1 MOL     -0.514587
     87 C28        -1.8020    3.1640    4.6410 c3        1 MOL      0.071186
     88 C29        -2.0240    4.3480    5.6340 c3        1 MOL      0.186525
     89 C30        -2.7850    2.0730    4.7390 c3        1 MOL     -0.260965
     90 C31        -3.2470    5.2060    5.4720 c3        1 MOL     -0.064066
     91 H36         0.2210    4.5970    3.5020 hn        1 MOL      0.183862
     92 H37        -2.5740    3.9870    2.7330 h1        1 MOL      0.069465
     93 H38        -0.8750    2.6780    4.9320 hc        1 MOL      0.028335
     94 H39        -1.1500    4.9940    5.6650 hc        1 MOL     -0.063284
     95 H40        -2.0610    3.8980    6.6170 hc        1 MOL     -0.063284
     96 H41        -3.8190    2.2410    4.4220 hc        1 MOL      0.064108
     97 H42        -2.3070    1.1570    4.3910 hc        1 MOL      0.064108
     98 H43        -3.0690    1.9390    5.7890 hc        1 MOL      0.064108
     99 H44        -3.1340    5.6380    4.4800 hc        1 MOL      0.001897
    100 H45        -4.1120    4.5520    5.3800 hc        1 MOL      0.001897
    101 H46        -3.4000    5.9020    6.3060 hc        1 MOL      0.001897
    102 N10        -2.1870    1.7990    1.4900 n         1 MOL     -0.544926
    103 C32        -1.8850    0.6540    0.6080 c3        1 MOL      0.228796
    104 C33        -2.9700    0.4370   -0.4260 c         1 MOL      0.429728
    105 O16        -3.1800   -0.6790   -0.8800 o         1 MOL     -0.363639
    106 C34        -1.8210   -0.6320    1.5010 c3        1 MOL     -0.245730
    107 C35        -0.9390   -1.7050    0.8160 c         1 MOL      0.778646
    108 O17        -0.5320   -1.7000   -0.3420 o         1 MOL     -0.752265
    109 O18        -0.7590   -2.7660    1.5050 o         1 MOL     -0.752265
    110 H47        -3.1500    2.1100    1.5460 hn        1 MOL      0.271713
    111 H48        -0.9240    0.8710    0.1530 h1        1 MOL      0.087159
    112 H49        -2.8160   -1.0550    1.6490 hc        1 MOL      0.072815
    113 H50        -1.3780   -0.3690    2.4550 hc        1 MOL      0.072815
    114 N11        -3.6250    1.5000   -0.8610 n         1 MOL     -0.557244
    115 C36        -4.7460    1.4590   -1.7540 c3        1 MOL      0.484629
    116 C37        -5.7920    0.3630   -1.1830 c         1 MOL      0.020818
    117 O19        -6.0690    0.3650    0.0720 o         1 MOL     -0.462453
    118 C38        -5.3240    2.8330   -1.9320 c3        1 MOL     -0.430079
    119 C39        -6.5800    2.8270   -2.8510 ca        1 MOL      0.246390
    120 C40        -7.8700    2.7400   -2.4070 ca        1 MOL     -0.246754
    121 C41        -6.3690    3.0840   -4.2300 ca        1 MOL     -0.246754
    122 C42        -8.9910    2.7480   -3.2350 ca        1 MOL     -0.070678
    123 C43        -7.4870    3.1390   -5.1260 ca        1 MOL     -0.070678
    124 C44        -8.7730    2.9550   -4.6350 ca        1 MOL     -0.161620
    125 H51        -3.4990    2.3980   -0.4120 hn        1 MOL      0.273159
    126 H52        -4.3230    1.1450   -2.7050 h1        1 MOL      0.000632
    127 H53        -4.4540    3.4210   -2.2320 hc        1 MOL      0.127475
    128 H54        -5.7460    3.1470   -0.9810 hc        1 MOL      0.127475
    129 H55        -8.0410    2.7360   -1.3460 ha        1 MOL      0.140756
    130 H56        -5.3910    3.2890   -4.6070 ha        1 MOL      0.140756
    131 H57        -9.9840    2.7010   -2.8160 ha        1 MOL      0.106611
    132 H58        -7.2700    3.3610   -6.1620 ha        1 MOL      0.106611
    133 H59        -9.6000    2.9340   -5.3300 ha        1 MOL      0.105944
    134 N12        -6.4650   -0.3630   -2.0690 n         1 MOL      0.211950
    135 C45        -7.4400   -1.3630   -1.7840 c3        1 MOL     -0.033135
    136 C46        -7.1110   -2.4460   -0.6890 c         1 MOL      0.553318
    137 O20        -7.9790   -2.8550    0.0050 o         1 MOL     -0.597295
    138 C47        -7.7760   -2.0680   -3.1230 c3        1 MOL     -0.074517
    139 C48        -6.6540   -1.8590   -4.0490 c3        1 MOL      0.053686
    140 C49        -5.9920   -0.5800   -3.4970 c3        1 MOL     -0.297786
    141 H60        -8.3100   -0.8300   -1.3990 h1        1 MOL      0.017092
    142 H61        -8.1270   -3.0930   -2.9590 hc        1 MOL      0.033873
    143 H62        -8.6030   -1.4860   -3.5370 hc        1 MOL      0.033873
    144 H63        -6.0390   -2.7620   -3.9980 hc        1 MOL      0.023749
    145 H64        -7.0070   -1.7850   -5.0820 hc        1 MOL      0.023749
    146 H65        -4.9040   -0.6270   -3.4670 h1        1 MOL      0.104437
    147 H66        -6.3680    0.2780   -4.0690 h1        1 MOL      0.104437
    148 N13        -5.8830   -2.8740   -0.6450 n         1 MOL     -0.319264
    149 C50        -5.3500   -3.9270    0.3230 c3        1 MOL     -0.209701
    150 C51        -5.5890   -3.6610    1.8500 c         1 MOL      0.441802
    151 O21        -5.2770   -4.5330    2.6490 o         1 MOL     -0.523148
    152 C52        -3.8990   -4.2920    0.0510 c3        1 MOL      0.188995
    153 C53        -3.5790   -4.8590   -1.3560 c3        1 MOL     -0.164216
    154 C54        -2.0500   -5.0420   -1.4050 c         1 MOL      0.691487
    155 O22        -1.5070   -5.7550   -0.5360 o         1 MOL     -0.731597
    156 O23        -1.3330   -4.3710   -2.2050 o         1 MOL     -0.731597
    157 H67        -5.2240   -2.3760   -1.2300 hn        1 MOL      0.246262
    158 H68        -6.0250   -4.7400    0.0510 h1        1 MOL      0.128656
    159 H69        -3.5250   -5.0010    0.7800 hc        1 MOL      0.001906
    160 H70        -3.3040   -3.3830    0.1610 hc        1 MOL      0.001906
    161 H71        -3.8510   -4.0820   -2.0690 hc        1 MOL      0.003552
    162 H72        -4.1860   -5.7210   -1.6080 hc        1 MOL      0.003552
    163 N14        -6.0570   -2.4800    2.2340 n         1 MOL     -0.115593
    164 C55        -6.2920   -2.0060    3.5980 c3        1 MOL     -0.176633
    165 H73        -6.4730   -2.8590    4.2520 h1        1 MOL      0.072957
    166 H74        -5.4180   -1.4590    3.9500 h1        1 MOL      0.072957
    167 H75        -7.1620   -1.3490    3.6100 h1        1 MOL      0.072957
    168 H76        -6.2120   -1.7570    1.5420 hn        1 MOL      0.185053
    169 Ca1         0.8000   -3.9410   -0.2580 Ca        1 MOL      1.771244
    170 O24         2.2120   -2.0240    1.2930 oh        1 MOL     -0.864488
    171 H77         3.0600   -2.1090    1.7330 ho        1 MOL      0.427282
    172 H78         2.1540   -1.0920    1.0880 ho        1 MOL      0.427282
    173 O25         1.9860   -6.1840   -1.1060 oh        1 MOL     -0.864488
    174 H79         2.5020   -6.3420   -0.3140 ho        1 MOL      0.427282
    175 H80         2.5860   -6.3870   -1.8330 ho        1 MOL      0.427282
    176 O26         0.8030   -5.4570    1.8320 oh        1 MOL     -0.864488
    177 H81         0.0770   -5.5000    2.4570 ho        1 MOL      0.427282
    178 H82         1.3780   -6.1820    2.0620 ho        1 MOL      0.427282
@<TRIPOS>BOND
     1    1    2 1   
     2    1    4 1   
     3    1    5 1   
     4    1    6 1   
     5    2    3 2   
     6    2    7 1   
     7    7    8 1   
     8    7   15 1   
     9    8    9 1   
    10    8   11 1   
    11    8   16 1   
    12    9   10 2   
    13    9   19 1   
    14   11   12 1   
    15   11   17 1   
    16   11   18 1   
    17   12   13 1   
    18   12   14 1   
    19   19   20 1   
    20   19   24 1   
    21   20   21 1   
    22   20   23 1   
    23   20   25 1   
    24   21   22 2   
    25   21   29 1   
    26   23   26 1   
    27   23   27 1   
    28   23   28 1   
    29   29   30 1   
    30   29   37 1   
    31   30   31 1   
    32   30   33 1   
    33   30   38 1   
    34   31   32 2   
    35   31   41 1   
    36   33   34 1   
    37   33   39 1   
    38   33   40 1   
    39   34   35 1   
    40   34   36 1   
    41   41   42 1   
    42   41   45 1   
    43   42   43 1   
    44   42   46 1   
    45   42   47 1   
    46   43   44 2   
    47   43   48 1   
    48   48   49 1   
    49   48   56 1   
    50   49   50 1   
    51   49   52 1   
    52   49   57 1   
    53   50   51 2   
    54   50   62 1   
    55   52   53 1   
    56   52   58 1   
    57   52   59 1   
    58   53   54 1   
    59   53   55 2   
    60   54   60 1   
    61   54   61 1   
    62   62   63 1   
    63   62   66 1   
    64   63   64 1   
    65   63   67 1   
    66   63   68 1   
    67   64   65 2   
    68   64   69 1   
    69   69   70 1   
    70   69   76 1   
    71   70   71 1   
    72   70   73 1   
    73   70   77 1   
    74   71   72 2   
    75   71   83 1   
    76   73   74 1   
    77   73   75 1   
    78   73   78 1   
    79   74   80 1   
    80   74   81 1   
    81   74   82 1   
    82   75   79 1   
    83   83   84 1   
    84   83   91 1   
    85   84   85 1   
    86   84   87 1   
    87   84   92 1   
    88   85   86 2   
    89   85  102 1   
    90   87   88 1   
    91   87   89 1   
    92   87   93 1   
    93   88   90 1   
    94   88   94 1   
    95   88   95 1   
    96   89   96 1   
    97   89   97 1   
    98   89   98 1   
    99   90   99 1   
   100   90  100 1   
   101   90  101 1   
   102  102  103 1   
   103  102  110 1   
   104  103  104 1   
   105  103  106 1   
   106  103  111 1   
   107  104  105 2   
   108  104  114 1   
   109  106  107 1   
   110  106  112 1   
   111  106  113 1   
   112  107  108 1   
   113  107  109 1   
   114  114  115 1   
   115  114  125 1   
   116  115  116 1   
   117  115  118 1   
   118  115  126 1   
   119  116  117 2   
   120  116  134 1   
   121  118  119 1   
   122  118  127 1   
   123  118  128 1   
   124  119  120 ar  
   125  119  121 ar  
   126  120  122 ar  
   127  120  129 1   
   128  121  123 ar  
   129  121  130 1   
   130  122  124 ar  
   131  122  131 1   
   132  123  124 ar  
   133  123  132 1   
   134  124  133 1   
   135  134  135 1   
   136  134  140 1   
   137  135  136 1   
   138  135  138 1   
   139  135  141 1   
   140  136  137 2   
   141  136  148 1   
   142  138  139 1   
   143  138  142 1   
   144  138  143 1   
   145  139  140 1   
   146  139  144 1   
   147  139  145 1   
   148  140  146 1   
   149  140  147 1   
   150  148  149 1   
   151  148  157 1   
   152  149  150 1   
   153  149  152 1   
   154  149  158 1   
   155  150  151 2   
   156  150  163 1   
   157  152  153 1   
   158  152  159 1   
   159  152  160 1   
   160  153  154 1   
   161  153  161 1   
   162  153  162 1   
   163  154  155 1   
   164  154  156 1   
   165  163  164 1   
   166  163  168 1   
   167  164  165 1   
   168  164  166 1   
   169  164  167 1   
   170  170  171 1   
   171  170  172 1   
   172  173  174 1   
   173  173  175 1   
   174  176  177 1   
   175  176  178 1   
@<TRIPOS>SUBSTRUCTURE
     1 MOL         1 TEMP              0 ****  ****    0 ROOT
