@<TRIPOS>MOLECULE
MOL
  192   187     1     0     0
SMALL
resp


@<TRIPOS>ATOM
      1 C1         11.0790    5.2330   -2.2340 c3        1 MOL     -0.301389
      2 C2         10.7940    3.8080   -1.6160 c         1 MOL      0.612264
      3 O1         11.1270    2.7320   -2.1140 o         1 MOL     -0.619462
      4 H1         12.0490    5.5900   -1.8890 hc        1 MOL      0.084326
      5 H2         11.0830    5.1630   -3.3220 hc        1 MOL      0.084326
      6 H3         10.3020    5.9290   -1.9170 hc        1 MOL      0.084326
      7 N1         10.2200    3.8670   -0.4420 n         1 MOL     -0.180743
      8 C3          9.8980    2.7330    0.3850 c3        1 MOL     -0.249746
      9 C4          8.7690    1.9590   -0.2840 c         1 MOL      0.525377
     10 O2          7.7070    2.5760   -0.5710 o         1 MOL     -0.596789
     11 C5          9.5990    3.2130    1.8010 c3        1 MOL     -0.054817
     12 C6          8.8400    4.5220    2.0940 c         1 MOL      0.774467
     13 O3          9.0640    5.1700    3.1640 o         1 MOL     -0.703597
     14 O4          8.1140    4.9800    1.2020 o         1 MOL     -0.703597
     15 H4          9.8560    4.7550   -0.1230 hn        1 MOL      0.112196
     16 H5         10.8000    2.1270    0.4610 h1        1 MOL      0.101714
     17 H6         10.5580    3.2970    2.3150 hc        1 MOL      0.026297
     18 H7          9.1150    2.3420    2.2470 hc        1 MOL      0.026297
     19 N2          8.9240    0.6050   -0.4080 n         1 MOL     -0.259401
     20 C7          8.0610   -0.4320   -1.0000 c3        1 MOL      0.047042
     21 C8          6.9640   -0.8430   -0.0090 c         1 MOL      0.467294
     22 O5          6.3660   -1.8830   -0.2800 o         1 MOL     -0.490209
     23 C9          8.9230   -1.4960   -1.5440 c3        1 MOL     -0.360218
     24 C10         9.6250   -2.2270   -0.3740 c3        1 MOL     -0.098314
     25 C11        10.7100   -3.1130   -1.0220 c3        1 MOL      0.041182
     26 C12        11.6400   -3.8480   -0.0440 c3        1 MOL     -0.158834
     27 N3         12.3520   -2.9430    0.8370 n4        1 MOL     -0.159436
     28 H8          9.8700    0.2740   -0.2550 hn        1 MOL      0.202159
     29 H9          7.5230   -0.0100   -1.8490 h1        1 MOL      0.121262
     30 H10         9.7070   -0.9820   -2.1060 hc        1 MOL      0.133492
     31 H11         8.3490   -2.1570   -2.1950 hc        1 MOL      0.133492
     32 H12         8.9220   -2.9430    0.0440 hc        1 MOL      0.078932
     33 H13         9.8660   -1.5840    0.4730 hc        1 MOL      0.078932
     34 H14        11.3050   -2.4900   -1.6880 hc        1 MOL      0.053735
     35 H15        10.2220   -3.8330   -1.6800 hc        1 MOL      0.053735
     36 H16        12.3220   -4.5340   -0.5550 hx        1 MOL      0.132141
     37 H17        11.0240   -4.4200    0.6560 hx        1 MOL      0.132141
     38 H18        11.7420   -2.5150    1.5220 hn        1 MOL      0.239604
     39 H19        13.0650   -3.4270    1.3660 hn        1 MOL      0.239604
     40 H20        12.8700   -2.1970    0.3940 hn        1 MOL      0.239604
     41 N4          6.6670    0.0440    0.9660 n         1 MOL     -0.424457
     42 C13         5.4560   -0.0960    1.8410 c3        1 MOL      0.034942
     43 C14         4.0990    0.0130    1.1230 c         1 MOL      0.570449
     44 O6          4.0490    0.6680    0.0890 o         1 MOL     -0.620647
     45 C15         5.4560    0.9750    2.9570 c3        1 MOL     -0.435665
     46 C16         5.0740    2.3660    2.3640 c         1 MOL      0.896209
     47 O7          5.9310    2.8580    1.5620 o         1 MOL     -0.738989
     48 O8          4.0430    3.0310    2.6070 o         1 MOL     -0.738989
     49 H21         7.1450    0.9420    0.9860 hn        1 MOL      0.241788
     50 H22         5.5290   -1.1110    2.2330 h1        1 MOL      0.130849
     51 H23         6.4210    1.0130    3.4540 hc        1 MOL      0.126837
     52 H24         4.8070    0.7300    3.8020 hc        1 MOL      0.126837
     53 N5          2.9230   -0.3670    1.7210 n         1 MOL     -0.428740
     54 C17         2.7780   -1.2830    2.7920 c3        1 MOL     -0.038183
     55 C18         3.0820   -2.7500    2.4330 c         1 MOL      0.462346
     56 O9          3.6700   -3.0440    1.3770 o         1 MOL     -0.535584
     57 H25         2.1100   -0.1590    1.1590 hn        1 MOL      0.351253
     58 H26         1.7340   -1.2140    3.1080 h1        1 MOL      0.064892
     59 H27         3.3950   -1.0090    3.6430 h1        1 MOL      0.064892
     60 N6          2.6500   -3.7060    3.2700 n         1 MOL     -0.328208
     61 C19         2.9540   -5.1300    2.9800 c3        1 MOL      0.086235
     62 C20         2.4090   -5.6110    1.5740 c         1 MOL      0.251321
     63 O10         3.0830   -6.3780    0.8740 o         1 MOL     -0.489712
     64 C21         2.5590   -6.0660    4.0990 c3        1 MOL     -0.335956
     65 C22         1.1050   -5.8670    4.7130 c         1 MOL      0.715714
     66 O11         0.1640   -6.5600    4.2490 o         1 MOL     -0.665188
     67 O12         0.9590   -5.0450    5.6430 o         1 MOL     -0.665188
     68 H28         2.2840   -3.5180    4.1850 hn        1 MOL      0.223578
     69 H29         4.0480   -5.1500    2.9410 h1        1 MOL      0.085455
     70 H30         3.4110   -6.0420    4.7780 hc        1 MOL      0.087665
     71 H31         2.6040   -7.0910    3.7360 hc        1 MOL      0.087665
     72 N7          1.1940   -5.2300    1.2150 n         1 MOL     -0.026102
     73 C23         0.5740   -5.5400   -0.0820 c3        1 MOL     -0.130184
     74 C24         0.9340   -4.6790   -1.1970 c         1 MOL      0.507258
     75 O13         1.0020   -5.1090   -2.3610 o         1 MOL     -0.546455
     76 H32         0.6790   -4.7210    1.9190 hn        1 MOL      0.160454
     77 H33        -0.5120   -5.4910    0.0630 h1        1 MOL      0.093236
     78 H34         0.8920   -6.5350   -0.3850 h1        1 MOL      0.093236
     79 N8          1.2050   -3.3690   -0.9210 n         1 MOL     -0.239311
     80 C25         1.5030   -2.4060   -2.0200 c3        1 MOL     -0.188404
     81 C26         0.8040   -1.1230   -1.6620 c         1 MOL      0.508956
     82 O14         0.9690   -0.5220   -0.5960 o         1 MOL     -0.536242
     83 C27         2.9220   -2.0690   -2.1220 c3        1 MOL      0.254193
     84 C28         3.7500   -3.3190   -2.1280 c3        1 MOL     -0.378966
     85 O15         3.0800   -1.2670   -3.2900 oh        1 MOL     -0.611710
     86 H35         1.0050   -3.0840    0.0250 hn        1 MOL      0.242288
     87 H36         1.0130   -2.7230   -2.9460 h1        1 MOL      0.109850
     88 H37         3.2500   -1.4640   -1.2750 h1        1 MOL      0.103629
     89 H38         4.0450   -1.2120   -3.3290 ho        1 MOL      0.378098
     90 H39         4.7980   -3.1990   -2.4000 hc        1 MOL      0.118981
     91 H40         3.6490   -3.9150   -1.2240 hc        1 MOL      0.118981
     92 H41         3.4210   -4.0110   -2.8980 hc        1 MOL      0.118981
     93 N9         -0.0410   -0.7140   -2.5570 n         1 MOL     -0.210423
     94 C29        -0.8400    0.4600   -2.2910 c3        1 MOL      0.019483
     95 C30        -2.0920    0.2760   -1.5870 c         1 MOL      0.563063
     96 O16        -2.3240    0.9780   -0.6370 o         1 MOL     -0.549177
     97 C31        -0.9970    1.3770   -3.5350 c3        1 MOL     -0.024034
     98 C32         0.2690    1.6690   -4.3350 c3        1 MOL      0.188507
     99 C33        -1.7060    2.7860   -3.2380 c3        1 MOL     -0.245898
    100 C34         1.5590    2.0550   -3.5570 c3        1 MOL     -0.395703
    101 H42        -0.1530   -1.2120   -3.4350 hn        1 MOL      0.230813
    102 H43        -0.2940    1.1370   -1.6390 h1        1 MOL      0.091163
    103 H44        -1.6380    0.8770   -4.2560 hc        1 MOL     -0.012034
    104 H45         0.1380    2.3590   -5.1660 hc        1 MOL     -0.020372
    105 H46         0.5350    0.7930   -4.9200 hc        1 MOL     -0.020372
    106 H47        -1.0720    3.5150   -2.7270 hc        1 MOL      0.071893
    107 H48        -1.8600    3.1990   -4.2390 hc        1 MOL      0.071893
    108 H49        -2.7110    2.7620   -2.8230 hc        1 MOL      0.071893
    109 H50         2.3080    2.1020   -4.3530 hc        1 MOL      0.091506
    110 H51         1.3380    2.9800   -3.0400 hc        1 MOL      0.091506
    111 H52         1.8080    1.2280   -2.8870 hc        1 MOL      0.091506
    112 N10        -2.8300   -0.7650   -1.9150 n         1 MOL     -0.427733
    113 C35        -4.0410   -1.1980   -1.1010 c3        1 MOL     -0.046978
    114 C36        -5.1030   -1.8490   -1.9580 c         1 MOL      0.596008
    115 O17        -4.6990   -2.3790   -3.0130 o         1 MOL     -0.521083
    116 C37        -3.5030   -2.2730   -0.0730 c3        1 MOL      0.230006
    117 C38        -2.4120   -3.1680   -0.6920 c3        1 MOL     -0.052639
    118 O18        -2.7750   -1.6880    1.0380 oh        1 MOL     -0.531967
    119 H53        -2.5700   -1.3280   -2.7240 hn        1 MOL      0.263435
    120 H54        -4.4800   -0.4360   -0.4540 h1        1 MOL      0.090393
    121 H55        -4.3000   -2.9290    0.2690 h1        1 MOL     -0.007406
    122 H56        -3.4140   -1.0810    1.4250 ho        1 MOL      0.373772
    123 H57        -2.3210   -3.9750    0.0310 hc        1 MOL      0.004683
    124 H58        -2.8630   -3.5570   -1.6100 hc        1 MOL      0.004683
    125 H59        -1.4700   -2.6890   -0.9870 hc        1 MOL      0.004683
    126 N11        -6.3720   -1.7430   -1.6010 n         1 MOL     -0.540121
    127 C39        -7.6270   -2.1610   -2.4290 c3        1 MOL     -0.028292
    128 C40        -8.8470   -1.2890   -2.2020 c         1 MOL      0.559939
    129 O19        -9.6070   -0.9980   -3.1570 o         1 MOL     -0.546877
    130 C41        -7.9450   -3.6120   -2.0740 c3        1 MOL      0.362372
    131 C42        -9.1830   -4.2290   -2.6410 c3        1 MOL     -0.328478
    132 O20        -7.9920   -3.8140   -0.6730 oh        1 MOL     -0.648526
    133 H60        -6.4960   -1.2770   -0.7150 hn        1 MOL      0.278922
    134 H61        -7.2770   -2.1580   -3.4690 h1        1 MOL      0.113369
    135 H62        -7.1530   -4.2080   -2.5330 h1        1 MOL      0.019319
    136 H63        -7.1760   -4.0740   -0.2500 ho        1 MOL      0.413912
    137 H64        -9.1980   -5.2690   -2.3250 hc        1 MOL      0.092945
    138 H65       -10.0820   -3.7410   -2.2620 hc        1 MOL      0.092945
    139 H66        -9.2090   -4.1640   -3.7280 hc        1 MOL      0.092945
    140 N12        -9.1050   -0.8050   -0.9560 n         1 MOL     -0.384803
    141 C43       -10.2630    0.0340   -0.5900 c3        1 MOL     -0.189337
    142 C44        -9.8940    0.9770    0.5740 c         1 MOL      0.641191
    143 O21        -9.3470    0.5970    1.5770 o         1 MOL     -0.503916
    144 C45       -11.5710   -0.8340   -0.4510 c3        1 MOL     -0.020695
    145 C46       -12.7410    0.1500   -0.3250 c3        1 MOL     -0.101596
    146 C47       -14.1120   -0.7010   -0.3070 c3        1 MOL     -0.218758
    147 C48       -14.2440   -1.5210    0.9790 c3        1 MOL      0.075127
    148 N13       -15.2720   -2.5530    0.9230 n4        1 MOL     -0.273318
    149 H67        -8.4330   -1.0070   -0.2200 hn        1 MOL      0.264468
    150 H68       -10.3670    0.7330   -1.4240 h1        1 MOL      0.134836
    151 H69       -11.5480   -1.6010    0.3220 hc        1 MOL      0.069146
    152 H70       -11.8250   -1.4260   -1.3320 hc        1 MOL      0.069146
    153 H71       -12.7290    0.7420   -1.2440 hc        1 MOL      0.086262
    154 H72       -12.6790    0.7240    0.6020 hc        1 MOL      0.086262
    155 H73       -14.0770   -1.3300   -1.1880 hc        1 MOL      0.088817
    156 H74       -14.9770   -0.0580   -0.4870 hc        1 MOL      0.088817
    157 H75       -14.5540   -0.8000    1.7360 hx        1 MOL      0.079507
    158 H76       -13.2990   -1.8800    1.4050 hx        1 MOL      0.079507
    159 H77       -15.3310   -3.0910    1.7740 hn        1 MOL      0.255726
    160 H78       -16.2030   -2.1410    0.8920 hn        1 MOL      0.255726
    161 H79       -15.1540   -3.0830    0.0700 hn        1 MOL      0.255726
    162 N14       -10.3170    2.2430    0.4220 n         1 MOL     -0.518411
    163 C49       -10.0690    3.2650    1.5430 c3        1 MOL      0.187522
    164 C50        -8.5670    3.5170    1.7610 c         1 MOL      0.377583
    165 O22        -8.0320    3.2530    2.7970 o         1 MOL     -0.496477
    166 C51       -10.9480    4.5120    1.3320 c3        1 MOL     -0.142289
    167 C52       -10.7460    5.5130    2.5100 c3        1 MOL     -0.285226
    168 C53       -11.9700    6.4790    2.4900 c         1 MOL      0.747950
    169 O23       -11.9360    7.2900    1.5360 o         1 MOL     -0.655643
    170 O24       -12.9090    6.5380    3.3000 o         1 MOL     -0.655643
    171 H80       -10.9730    2.4160   -0.3270 hn        1 MOL      0.248934
    172 H81       -10.4140    2.7720    2.4510 h1        1 MOL      0.057152
    173 H82       -12.0160    4.3040    1.3280 hc        1 MOL      0.066863
    174 H83       -10.7900    5.0170    0.3830 hc        1 MOL      0.066863
    175 H84        -9.8420    6.1280    2.4340 hc        1 MOL      0.078944
    176 H85       -10.7940    4.9700    3.4540 hc        1 MOL      0.078944
    177 N15        -7.8610    4.0920    0.7720 n         1 MOL     -0.308179
    178 C54        -8.1540    4.4490   -0.6080 c3        1 MOL     -0.063407
    179 H86        -9.0750    3.9580   -0.9210 h1        1 MOL      0.059747
    180 H87        -8.2740    5.5290   -0.6870 h1        1 MOL      0.059747
    181 H88        -7.3350    4.1250   -1.2500 h1        1 MOL      0.059747
    182 H89        -6.9130    4.3680    0.9890 hn        1 MOL      0.276036
    183 Ca1         6.0260    4.6430   -0.4030 Ca        1 MOL      1.781963
    184 O25         3.5530    3.8080   -1.1800 oh        1 MOL     -0.962569
    185 H90         3.5600    3.3260   -2.0140 ho        1 MOL      0.467353
    186 H91         2.9700    3.2960   -0.6180 ho        1 MOL      0.467353
    187 O26         6.5760    4.1140   -2.8990 oh        1 MOL     -0.962569
    188 H92         7.1060    4.3620   -3.6620 ho        1 MOL      0.467353
    189 H93         5.9290    3.4960   -3.2480 ho        1 MOL      0.467353
    190 O27         4.5240    5.5710    1.6610 oh        1 MOL     -0.962569
    191 H94         4.1270    4.7680    2.0030 ho        1 MOL      0.467353
    192 H95         3.7910    6.1860    1.5830 ho        1 MOL      0.467353
@<TRIPOS>BOND
     1    1    2 1   
     2    1    4 1   
     3    1    5 1   
     4    1    6 1   
     5    2    3 2   
     6    2    7 1   
     7    7    8 1   
     8    7   15 1   
     9    8    9 1   
    10    8   11 1   
    11    8   16 1   
    12    9   10 2   
    13    9   19 1   
    14   11   12 1   
    15   11   17 1   
    16   11   18 1   
    17   12   13 1   
    18   12   14 1   
    19   19   20 1   
    20   19   28 1   
    21   20   21 1   
    22   20   23 1   
    23   20   29 1   
    24   21   22 2   
    25   21   41 1   
    26   23   24 1   
    27   23   30 1   
    28   23   31 1   
    29   24   25 1   
    30   24   32 1   
    31   24   33 1   
    32   25   26 1   
    33   25   34 1   
    34   25   35 1   
    35   26   27 1   
    36   26   36 1   
    37   26   37 1   
    38   27   38 1   
    39   27   39 1   
    40   27   40 1   
    41   41   42 1   
    42   41   49 1   
    43   42   43 1   
    44   42   45 1   
    45   42   50 1   
    46   43   44 2   
    47   43   53 1   
    48   45   46 1   
    49   45   51 1   
    50   45   52 1   
    51   46   47 1   
    52   46   48 1   
    53   53   54 1   
    54   53   57 1   
    55   54   55 1   
    56   54   58 1   
    57   54   59 1   
    58   55   56 2   
    59   55   60 1   
    60   60   61 1   
    61   60   68 1   
    62   61   62 1   
    63   61   64 1   
    64   61   69 1   
    65   62   63 2   
    66   62   72 1   
    67   64   65 1   
    68   64   70 1   
    69   64   71 1   
    70   65   66 1   
    71   65   67 1   
    72   72   73 1   
    73   72   76 1   
    74   73   74 1   
    75   73   77 1   
    76   73   78 1   
    77   74   75 2   
    78   74   79 1   
    79   79   80 1   
    80   79   86 1   
    81   80   81 1   
    82   80   83 1   
    83   80   87 1   
    84   81   82 2   
    85   81   93 1   
    86   83   84 1   
    87   83   85 1   
    88   83   88 1   
    89   84   90 1   
    90   84   91 1   
    91   84   92 1   
    92   85   89 1   
    93   93   94 1   
    94   93  101 1   
    95   94   95 1   
    96   94   97 1   
    97   94  102 1   
    98   95   96 2   
    99   95  112 1   
   100   97   98 1   
   101   97   99 1   
   102   97  103 1   
   103   98  100 1   
   104   98  104 1   
   105   98  105 1   
   106   99  106 1   
   107   99  107 1   
   108   99  108 1   
   109  100  109 1   
   110  100  110 1   
   111  100  111 1   
   112  112  113 1   
   113  112  119 1   
   114  113  114 1   
   115  113  116 1   
   116  113  120 1   
   117  114  115 2   
   118  114  126 1   
   119  116  117 1   
   120  116  118 1   
   121  116  121 1   
   122  117  123 1   
   123  117  124 1   
   124  117  125 1   
   125  118  122 1   
   126  126  127 1   
   127  126  133 1   
   128  127  128 1   
   129  127  130 1   
   130  127  134 1   
   131  128  129 2   
   132  128  140 1   
   133  130  131 1   
   134  130  132 1   
   135  130  135 1   
   136  131  137 1   
   137  131  138 1   
   138  131  139 1   
   139  132  136 1   
   140  140  141 1   
   141  140  149 1   
   142  141  142 1   
   143  141  144 1   
   144  141  150 1   
   145  142  143 2   
   146  142  162 1   
   147  144  145 1   
   148  144  151 1   
   149  144  152 1   
   150  145  146 1   
   151  145  153 1   
   152  145  154 1   
   153  146  147 1   
   154  146  155 1   
   155  146  156 1   
   156  147  148 1   
   157  147  157 1   
   158  147  158 1   
   159  148  159 1   
   160  148  160 1   
   161  148  161 1   
   162  162  163 1   
   163  162  171 1   
   164  163  164 1   
   165  163  166 1   
   166  163  172 1   
   167  164  165 2   
   168  164  177 1   
   169  166  167 1   
   170  166  173 1   
   171  166  174 1   
   172  167  168 1   
   173  167  175 1   
   174  167  176 1   
   175  168  169 1   
   176  168  170 1   
   177  177  178 1   
   178  177  182 1   
   179  178  179 1   
   180  178  180 1   
   181  178  181 1   
   182  184  185 1   
   183  184  186 1   
   184  187  188 1   
   185  187  189 1   
   186  190  191 1   
   187  190  192 1   
@<TRIPOS>SUBSTRUCTURE
     1 MOL         1 TEMP              0 ****  ****    0 ROOT
