@<TRIPOS>MOLECULE
MOL
  188   182     1     0     0
SMALL
resp


@<TRIPOS>ATOM
      1 C1         -5.8950   -2.3270    4.1430 c3        1 MOL     -0.405143
      2 C2         -6.1420   -2.1060    2.5840 c         1 MOL      0.662496
      3 O1         -5.6840   -1.1110    2.0080 o         1 MOL     -0.632224
      4 H1         -6.7390   -2.8680    4.5700 hc        1 MOL      0.107840
      5 H2         -4.9820   -2.9040    4.2890 hc        1 MOL      0.107840
      6 H3         -5.7970   -1.3600    4.6360 hc        1 MOL      0.107840
      7 N1         -7.0010   -2.9250    1.9980 n         1 MOL     -0.563937
      8 C3         -7.5760   -2.8980    0.6180 c3        1 MOL      0.269196
      9 C4         -7.8280   -1.4550   -0.0630 c         1 MOL      0.427805
     10 O2         -7.7870   -1.3560   -1.3250 o         1 MOL     -0.487740
     11 C5         -6.7430   -3.9120   -0.2240 c3        1 MOL     -0.318241
     12 C6         -7.6560   -4.7910   -1.1330 c         1 MOL      0.693340
     13 O3         -8.6660   -5.4370   -0.7740 o         1 MOL     -0.656066
     14 O4         -7.3310   -4.8190   -2.3500 o         1 MOL     -0.656066
     15 H4         -7.3680   -3.5970    2.6590 hn        1 MOL      0.320264
     16 H5         -8.5510   -3.3550    0.7690 h1        1 MOL     -0.015783
     17 H6         -6.3090   -4.6430    0.4480 hc        1 MOL      0.091682
     18 H7         -5.8870   -3.4250   -0.6860 hc        1 MOL      0.091682
     19 N2         -8.0270   -0.3750    0.6440 n         1 MOL     -0.396281
     20 C7         -8.3510    1.0230    0.1380 c3        1 MOL      0.024376
     21 C8         -7.1800    2.0460    0.2330 c         1 MOL      0.608500
     22 O5         -7.4100    3.2590    0.1860 o         1 MOL     -0.586086
     23 C9         -9.6870    1.6330    0.7300 c3        1 MOL      0.025755
     24 C10       -10.7850    0.6570    0.9680 c3        1 MOL      0.008641
     25 C11       -11.9680    1.3750    1.5760 c3        1 MOL      0.034443
     26 C12       -12.6870    2.3630    0.6640 c3        1 MOL      0.001712
     27 N3        -13.4990    1.7290   -0.3930 n4        1 MOL     -0.227219
     28 H8         -7.9070   -0.4110    1.6470 hn        1 MOL      0.266770
     29 H9         -8.4080    0.9550   -0.9450 h1        1 MOL      0.083355
     30 H10        -9.9980    2.3970    0.0140 hc        1 MOL      0.021877
     31 H11        -9.4490    2.1990    1.6220 hc        1 MOL      0.021877
     32 H12       -10.4550   -0.2050    1.5480 hc        1 MOL     -0.001286
     33 H13       -11.2990    0.2320    0.1090 hc        1 MOL     -0.001286
     34 H14       -11.6660    1.8870    2.4950 hc        1 MOL      0.013190
     35 H15       -12.6960    0.6550    1.9410 hc        1 MOL      0.013190
     36 H16       -11.9270    3.0720    0.3140 hx        1 MOL      0.066798
     37 H17       -13.2970    2.9360    1.3580 hx        1 MOL      0.066798
     38 H18       -14.0310    0.9380   -0.0540 hn        1 MOL      0.230154
     39 H19       -14.1430    2.3960   -0.7910 hn        1 MOL      0.230154
     40 H20       -12.8840    1.3480   -1.1050 hn        1 MOL      0.230154
     41 N4         -5.9890    1.5510    0.4520 n         1 MOL     -0.522497
     42 C13        -4.7030    2.3080    0.3850 c3        1 MOL      0.044324
     43 C14        -4.4840    2.7680   -1.1030 c         1 MOL      0.482661
     44 O6         -4.9950    2.1830   -2.0730 o         1 MOL     -0.430062
     45 C15        -3.6240    1.3420    0.8160 c3        1 MOL     -0.035132
     46 C16        -2.2660    1.9710    0.6030 c         1 MOL      0.358985
     47 O7         -1.8060    2.5700    1.5450 o         1 MOL     -0.605833
     48 O8         -1.6620    1.8780   -0.4900 o         1 MOL     -0.605833
     49 H21        -5.8910    0.5440    0.4670 hn        1 MOL      0.322008
     50 H22        -4.6950    3.1680    1.0560 h1        1 MOL      0.087131
     51 H23        -3.7500    0.3380    0.3940 hc        1 MOL      0.062590
     52 H24        -3.8100    1.2420    1.8830 hc        1 MOL      0.062590
     53 N5         -3.7780    3.9180   -1.3320 n         1 MOL     -0.332418
     54 C17        -3.6470    4.5130   -2.6400 c3        1 MOL     -0.077987
     55 C18        -2.9850    3.5390   -3.6590 c         1 MOL      0.554507
     56 O9         -3.3060    3.6830   -4.8250 o         1 MOL     -0.560610
     57 H25        -3.4800    4.3770   -0.4850 hn        1 MOL      0.223185
     58 H26        -3.1070    5.4690   -2.6090 h1        1 MOL      0.089764
     59 H27        -4.6770    4.7310   -2.9210 h1        1 MOL      0.089764
     60 N6         -2.0860    2.6370   -3.2570 n         1 MOL     -0.251034
     61 C19        -1.4660    1.5910   -4.0500 c3        1 MOL      0.199086
     62 C20        -1.9100    0.1030   -3.5670 c         1 MOL      0.424177
     63 O10        -1.1690   -0.8420   -3.8530 o         1 MOL     -0.535826
     64 C21         0.0730    1.6970   -4.1660 c3        1 MOL     -0.520106
     65 C22         0.7720    1.7510   -2.8030 c         1 MOL      0.708674
     66 N7          1.5560    0.7530   -2.5300 n         1 MOL     -0.732986
     67 O11         0.8020    2.7070   -2.0880 o         1 MOL     -0.586935
     68 H28        -1.9580    2.6010   -2.2590 hn        1 MOL     -0.017321
     69 H29        -1.8740    1.5510   -5.0590 h1        1 MOL      0.083957
     70 H30         0.3470    2.6260   -4.6670 hc        1 MOL      0.159974
     71 H31         0.2960    0.8180   -4.7740 hc        1 MOL      0.159974
     72 H32         1.7340    0.0650   -3.2440 hn        1 MOL      0.376826
     73 H33         2.2830    0.9110   -1.8420 hn        1 MOL      0.376826
     74 N8         -2.9610    0.0180   -2.7680 n         1 MOL     -0.216782
     75 C23        -3.4130   -1.2870   -2.2040 c3        1 MOL     -0.018886
     76 C24        -2.4630   -1.9540   -1.2060 c         1 MOL      0.509915
     77 O12        -2.4320   -3.1720   -1.0810 o         1 MOL     -0.531091
     78 H34        -3.4500    0.8820   -2.6110 hn        1 MOL      0.135644
     79 H35        -3.5160   -2.0240   -2.9930 h1        1 MOL      0.091994
     80 H36        -4.4260   -1.2130   -1.8150 h1        1 MOL      0.091994
     81 N9         -1.7430   -1.1380   -0.4600 n         1 MOL     -0.386358
     82 C25        -0.9770   -1.6790    0.7130 c3        1 MOL      0.156364
     83 C26         0.4380   -1.1040    0.6350 c         1 MOL      0.432994
     84 O13         0.6830    0.0360    0.3440 o         1 MOL     -0.429782
     85 C27        -1.7510   -1.2970    1.9550 c3        1 MOL     -0.222781
     86 C28        -0.9750   -1.6940    3.1940 ca        1 MOL      0.032298
     87 C29        -0.8000   -3.0610    3.6030 ca        1 MOL     -0.138178
     88 C30        -0.6970   -0.7090    4.2100 ca        1 MOL     -0.138178
     89 C31        -0.2040   -3.3730    4.8150 ca        1 MOL     -0.294968
     90 C32        -0.1180   -1.0640    5.4500 ca        1 MOL     -0.294968
     91 C33         0.0600   -2.4000    5.7450 ca        1 MOL      0.412564
     92 O14         0.3900   -2.8060    7.0290 oh        1 MOL     -0.509384
     93 H37        -1.7600   -0.1390   -0.6150 hn        1 MOL      0.245484
     94 H38        -0.9890   -2.7680    0.7490 h1        1 MOL      0.036860
     95 H39        -2.7320   -1.7830    1.9910 hc        1 MOL      0.125391
     96 H40        -1.8560   -0.2150    1.8930 hc        1 MOL      0.125391
     97 H41        -1.0140   -3.8800    2.9380 ha        1 MOL      0.139938
     98 H42        -0.8340    0.3180    3.8830 ha        1 MOL      0.139938
     99 H43         0.0600   -4.4080    5.0000 ha        1 MOL      0.155207
    100 H44         0.2250   -0.2750    6.0970 ha        1 MOL      0.155207
    101 H45         0.3200   -2.0810    7.6510 ho        1 MOL      0.367591
    102 N10         1.4300   -1.9990    0.8580 n         1 MOL     -0.553093
    103 C34         2.8490   -1.8530    0.7570 c3        1 MOL      0.239778
    104 C35         3.3420   -1.8220   -0.6880 c         1 MOL      0.071813
    105 O15         4.3500   -1.1680   -1.0110 o         1 MOL     -0.369645
    106 C36         3.4530   -2.9640    1.6990 c3        1 MOL      0.043258
    107 C37         2.9360   -2.9590    3.1840 c3        1 MOL      0.294840
    108 C38         5.0560   -3.0190    1.7850 c3        1 MOL     -0.589676
    109 C39         2.9850   -1.6290    3.9830 c3        1 MOL     -0.285444
    110 H46         1.3060   -2.9380    1.2380 hn        1 MOL      0.274985
    111 H47         3.1180   -0.8800    1.1640 h1        1 MOL      0.009761
    112 H48         3.1530   -3.9250    1.2760 hc        1 MOL     -0.000302
    113 H49         3.5530   -3.7150    3.6680 hc        1 MOL     -0.028458
    114 H50         1.9380   -3.3880    3.1540 hc        1 MOL     -0.028458
    115 H51         5.4510   -2.6800    0.8200 hc        1 MOL      0.172161
    116 H52         5.5150   -2.3600    2.5250 hc        1 MOL      0.172161
    117 H53         5.3750   -4.0010    2.1510 hc        1 MOL      0.172161
    118 H54         4.0140   -1.2620    3.9190 hc        1 MOL      0.052176
    119 H55         2.3060   -0.8300    3.6770 hc        1 MOL      0.052176
    120 H56         2.8100   -1.9460    5.0100 hc        1 MOL      0.052176
    121 N11         2.6870   -2.6160   -1.5620 n         1 MOL     -0.118331
    122 C40         3.1980   -2.8090   -2.9700 c3        1 MOL     -0.237172
    123 C41         4.7210   -3.1450   -3.1900 c         1 MOL      0.790143
    124 O16         5.2280   -2.9650   -4.2920 o         1 MOL     -0.559708
    125 C42         2.3570   -3.8850   -3.7080 c3        1 MOL      0.078943
    126 O17         2.5320   -5.0810   -2.9810 oh        1 MOL     -0.633805
    127 H57         2.0230   -3.2880   -1.1820 hn        1 MOL      0.295471
    128 H58         3.1020   -1.8800   -3.5370 h1        1 MOL      0.078251
    129 H59         2.6500   -4.0700   -4.7490 h1        1 MOL      0.082000
    130 H60         1.2800   -3.6970   -3.6650 h1        1 MOL      0.082000
    131 H61         2.1840   -5.7550   -3.5670 ho        1 MOL      0.434820
    132 N12         5.3780   -3.6630   -2.1490 n         1 MOL     -0.553979
    133 C43         6.7670   -3.9590   -1.9310 c3        1 MOL      0.364895
    134 C44         7.6020   -2.6650   -2.1030 c         1 MOL      0.359312
    135 O18         8.7880   -2.8020   -2.3760 o         1 MOL     -0.534026
    136 C45         7.2100   -5.1020   -2.8410 c3        1 MOL     -0.478359
    137 H62         4.7980   -3.8140   -1.3370 hn        1 MOL      0.272447
    138 H63         6.8690   -4.3290   -0.9050 h1        1 MOL      0.035025
    139 H64         8.1240   -5.4680   -2.3710 hc        1 MOL      0.131742
    140 H65         6.4340   -5.8630   -2.7880 hc        1 MOL      0.131742
    141 H66         7.2950   -4.8230   -3.8900 hc        1 MOL      0.131742
    142 N13         7.0870   -1.4630   -1.8030 n         1 MOL     -0.289604
    143 C46         7.8620   -0.2640   -1.9270 c3        1 MOL      0.444343
    144 C47         8.2060    0.3660   -0.5580 c         1 MOL      0.220851
    145 O19         7.5100    0.1370    0.4510 o         1 MOL     -0.461909
    146 C48         7.1000    0.7010   -2.7940 c3        1 MOL     -0.329283
    147 H67         6.1110   -1.4060   -1.5530 hn        1 MOL      0.098227
    148 H68         8.8150   -0.4360   -2.4300 h1        1 MOL     -0.008299
    149 H69         7.7540    1.4140   -3.2900 hc        1 MOL      0.079281
    150 H70         6.5990    0.1160   -3.5610 hc        1 MOL      0.079281
    151 H71         6.3430    1.2800   -2.2580 hc        1 MOL      0.079281
    152 N14         9.2220    1.1930   -0.4870 n         1 MOL     -0.275470
    153 C49         9.7210    1.8710    0.6720 c3        1 MOL     -0.135182
    154 C50        10.0190    0.9780    1.9030 c         1 MOL      0.439954
    155 O20         9.9630    1.3950    3.0160 o         1 MOL     -0.449731
    156 C51         8.6290    2.8940    1.0160 c3        1 MOL      0.086767
    157 C52         9.3190    4.2510    1.4650 c3        1 MOL     -0.235278
    158 C53         8.3170    5.3540    1.8120 c         1 MOL      0.706449
    159 O21         8.0270    5.6660    2.9900 o         1 MOL     -0.692054
    160 O22         7.8470    5.9650    0.8240 o         1 MOL     -0.692054
    161 H72         9.8570    1.0180   -1.2480 hn        1 MOL      0.233927
    162 H73        10.6230    2.4300    0.3990 h1        1 MOL      0.111620
    163 H74         7.9260    2.6160    1.8040 hc        1 MOL      0.018227
    164 H75         8.0170    3.1930    0.1590 hc        1 MOL      0.018227
    165 H76         9.9610    4.5550    0.6330 hc        1 MOL      0.036787
    166 H77         9.9490    3.9930    2.3160 hc        1 MOL      0.036787
    167 N15        10.3670   -0.2990    1.6680 n         1 MOL     -0.256180
    168 C54        10.5750   -1.4330    2.5790 c3        1 MOL     -0.119809
    169 H78         9.6090   -1.8040    2.9220 h1        1 MOL      0.078080
    170 H79        11.1040   -2.2280    2.0550 h1        1 MOL      0.078080
    171 H80        11.1640   -1.1080    3.4360 h1        1 MOL      0.078080
    172 H81        10.4390   -0.4880    0.6830 hn        1 MOL      0.201831
    173 Ca1         0.5280    3.0680    0.4850 Ca        1 MOL      1.794731
    174 O23         1.5150    1.8930    3.0160 oh        1 MOL     -0.875318
    175 H82         1.8350    0.9910    2.9620 ho        1 MOL      0.438890
    176 H83         1.8210    2.2010    3.8660 ho        1 MOL      0.438890
    177 O24        -0.7670    5.1060   -0.5710 oh        1 MOL     -0.875318
    178 H84        -1.4760    5.4850   -0.0470 ho        1 MOL      0.438890
    179 H85        -0.5460    5.7870   -1.2050 ho        1 MOL      0.438890
    180 O25         0.5860    4.8190    2.5120 oh        1 MOL     -0.875318
    181 H86         0.0740    5.5960    2.7430 ho        1 MOL      0.438890
    182 H87         1.4590    5.0110    2.8310 ho        1 MOL      0.438890
    183 O26         3.0490    1.9560   -0.2440 oh        1 MOL     -0.875318
    184 H88         3.8310    2.4020   -0.5750 ho        1 MOL      0.438890
    185 H89         3.3810    1.3580    0.4190 ho        1 MOL      0.438890
    186 O27         2.1520    4.9990   -0.5000 oh        1 MOL     -0.875318
    187 H90         2.4390    4.8710   -1.4040 ho        1 MOL      0.438890
    188 H91         2.0860    5.9540   -0.4000 ho        1 MOL      0.438890
@<TRIPOS>BOND
     1    1    2 1   
     2    1    4 1   
     3    1    5 1   
     4    1    6 1   
     5    2    3 2   
     6    2    7 1   
     7    7    8 1   
     8    7   15 1   
     9    8    9 1   
    10    8   11 1   
    11    8   16 1   
    12    9   10 2   
    13    9   19 1   
    14   11   12 1   
    15   11   17 1   
    16   11   18 1   
    17   12   13 1   
    18   12   14 1   
    19   19   20 1   
    20   19   28 1   
    21   20   21 1   
    22   20   23 1   
    23   20   29 1   
    24   21   22 2   
    25   21   41 1   
    26   23   24 1   
    27   23   30 1   
    28   23   31 1   
    29   24   25 1   
    30   24   32 1   
    31   24   33 1   
    32   25   26 1   
    33   25   34 1   
    34   25   35 1   
    35   26   27 1   
    36   26   36 1   
    37   26   37 1   
    38   27   38 1   
    39   27   39 1   
    40   27   40 1   
    41   41   42 1   
    42   41   49 1   
    43   42   43 1   
    44   42   45 1   
    45   42   50 1   
    46   43   44 2   
    47   43   53 1   
    48   45   46 1   
    49   45   51 1   
    50   45   52 1   
    51   46   47 1   
    52   46   48 1   
    53   53   54 1   
    54   53   57 1   
    55   54   55 1   
    56   54   58 1   
    57   54   59 1   
    58   55   56 2   
    59   55   60 1   
    60   60   61 1   
    61   60   68 1   
    62   61   62 1   
    63   61   64 1   
    64   61   69 1   
    65   62   63 2   
    66   62   74 1   
    67   64   65 1   
    68   64   70 1   
    69   64   71 1   
    70   65   66 1   
    71   65   67 2   
    72   66   72 1   
    73   66   73 1   
    74   74   75 1   
    75   74   78 1   
    76   75   76 1   
    77   75   79 1   
    78   75   80 1   
    79   76   77 2   
    80   76   81 1   
    81   81   82 1   
    82   81   93 1   
    83   82   83 1   
    84   82   85 1   
    85   82   94 1   
    86   83   84 2   
    87   83  102 1   
    88   85   86 1   
    89   85   95 1   
    90   85   96 1   
    91   86   87 ar  
    92   86   88 ar  
    93   87   89 ar  
    94   87   97 1   
    95   88   90 ar  
    96   88   98 1   
    97   89   91 ar  
    98   89   99 1   
    99   90   91 ar  
   100   90  100 1   
   101   91   92 1   
   102   92  101 1   
   103  102  103 1   
   104  102  110 1   
   105  103  104 1   
   106  103  106 1   
   107  103  111 1   
   108  104  105 2   
   109  104  121 1   
   110  106  107 1   
   111  106  108 1   
   112  106  112 1   
   113  107  109 1   
   114  107  113 1   
   115  107  114 1   
   116  108  115 1   
   117  108  116 1   
   118  108  117 1   
   119  109  118 1   
   120  109  119 1   
   121  109  120 1   
   122  121  122 1   
   123  121  127 1   
   124  122  123 1   
   125  122  125 1   
   126  122  128 1   
   127  123  124 2   
   128  123  132 1   
   129  125  126 1   
   130  125  129 1   
   131  125  130 1   
   132  126  131 1   
   133  132  133 1   
   134  132  137 1   
   135  133  134 1   
   136  133  136 1   
   137  133  138 1   
   138  134  135 2   
   139  134  142 1   
   140  136  139 1   
   141  136  140 1   
   142  136  141 1   
   143  142  143 1   
   144  142  147 1   
   145  143  144 1   
   146  143  146 1   
   147  143  148 1   
   148  144  145 2   
   149  144  152 1   
   150  146  149 1   
   151  146  150 1   
   152  146  151 1   
   153  152  153 1   
   154  152  161 1   
   155  153  154 1   
   156  153  156 1   
   157  153  162 1   
   158  154  155 2   
   159  154  167 1   
   160  156  157 1   
   161  156  163 1   
   162  156  164 1   
   163  157  158 1   
   164  157  165 1   
   165  157  166 1   
   166  158  159 1   
   167  158  160 1   
   168  167  168 1   
   169  167  172 1   
   170  168  169 1   
   171  168  170 1   
   172  168  171 1   
   173  174  175 1   
   174  174  176 1   
   175  177  178 1   
   176  177  179 1   
   177  180  181 1   
   178  180  182 1   
   179  183  184 1   
   180  183  185 1   
   181  186  187 1   
   182  186  188 1   
@<TRIPOS>SUBSTRUCTURE
     1 MOL         1 TEMP              0 ****  ****    0 ROOT
