@<TRIPOS>MOLECULE
MOL
  195   189     1     0     0
SMALL
resp


@<TRIPOS>ATOM
      1 C1          0.7410   -4.5220   -2.9330 c3        1 MOL     -0.541419
      2 C2          0.0140   -4.3420   -1.6130 c         1 MOL      0.670727
      3 O1         -0.8610   -3.4230   -1.5470 o         1 MOL     -0.552569
      4 H1          0.9340   -5.5820   -3.1000 hc        1 MOL      0.131696
      5 H2          0.1250   -4.1340   -3.7450 hc        1 MOL      0.131696
      6 H3          1.6870   -3.9810   -2.9050 hc        1 MOL      0.131696
      7 N1          0.2600   -5.1800   -0.6120 n         1 MOL     -0.464645
      8 C3         -0.4300   -5.1260    0.7320 c3        1 MOL      0.022392
      9 C4         -1.9300   -4.8820    0.7950 c         1 MOL      0.664204
     10 O2         -2.4860   -4.3900    1.7450 o         1 MOL     -0.505900
     11 C5          0.3220   -4.2110    1.6920 c3        1 MOL     -0.460960
     12 C6          1.8190   -4.2290    1.5440 c         1 MOL      0.924972
     13 O3          2.4690   -3.2500    1.0800 o         1 MOL     -0.740828
     14 O4          2.4880   -5.1690    2.0550 o         1 MOL     -0.740828
     15 H4          0.9530   -5.8920   -0.7930 hn        1 MOL      0.256996
     16 H5         -0.2950   -6.1040    1.1860 h1        1 MOL      0.091036
     17 H6          0.1890   -4.4870    2.7380 hc        1 MOL      0.134255
     18 H7         -0.2220   -3.2700    1.6120 hc        1 MOL      0.134255
     19 N2         -2.5890   -5.3240   -0.3020 n         1 MOL     -0.585916
     20 C7         -4.0810   -5.3000   -0.5080 c3        1 MOL      0.048482
     21 C8         -4.7830   -6.3040    0.4720 c         1 MOL      0.535651
     22 O5         -4.2730   -7.4020    0.5640 o         1 MOL     -0.566571
     23 C9         -4.4140   -5.5390   -1.9860 c3        1 MOL      0.200475
     24 C10        -3.6890   -4.5810   -2.9490 c3        1 MOL     -0.085694
     25 C11        -5.9150   -5.5470   -2.1880 c3        1 MOL     -0.436159
     26 C12        -4.0400   -4.6440   -4.3910 c3        1 MOL     -0.187504
     27 H8         -1.9440   -5.8120   -0.8970 hn        1 MOL      0.257921
     28 H9         -4.4110   -4.3020   -0.2040 h1        1 MOL      0.103906
     29 H10        -4.0010   -6.5030   -2.2710 hc        1 MOL     -0.024306
     30 H11        -2.6020   -4.6830   -2.8870 hc        1 MOL      0.087511
     31 H12        -3.9350   -3.5760   -2.6150 hc        1 MOL      0.087511
     32 H13        -6.4180   -4.5800   -2.1080 hc        1 MOL      0.130131
     33 H14        -6.0570   -5.7760   -3.2420 hc        1 MOL      0.130131
     34 H15        -6.4240   -6.2980   -1.5680 hc        1 MOL      0.130131
     35 H16        -3.2940   -4.0590   -4.9300 hc        1 MOL      0.033567
     36 H17        -3.9440   -5.6770   -4.7170 hc        1 MOL      0.033567
     37 H18        -5.0450   -4.3310   -4.6610 hc        1 MOL      0.033567
     38 N3         -6.0140   -6.0200    1.0650 n         1 MOL     -0.537687
     39 C13        -6.7360   -4.7450    1.0310 c3        1 MOL      0.370877
     40 C14        -6.6350   -3.9500    2.3140 c         1 MOL      0.553124
     41 O6         -6.0520   -4.3780    3.3220 o         1 MOL     -0.583140
     42 C15        -8.1830   -5.0840    0.7550 c3        1 MOL     -0.531691
     43 C16        -8.8940   -4.0580   -0.1340 c         1 MOL      0.769499
     44 O7         -8.3190   -3.0920   -0.6120 o         1 MOL     -0.699119
     45 O8        -10.1030   -4.2110   -0.5320 o         1 MOL     -0.699119
     46 H19        -6.2700   -6.6540    1.8050 hn        1 MOL      0.309209
     47 H20        -6.3280   -4.1280    0.2250 h1        1 MOL     -0.107993
     48 H21        -8.7310   -5.3610    1.6600 hc        1 MOL      0.098592
     49 H22        -8.2290   -5.9770    0.1400 hc        1 MOL      0.098592
     50 N4         -7.0980   -2.7170    2.2800 n         1 MOL     -0.393387
     51 C17        -6.9210   -1.7830    3.4010 c3        1 MOL     -0.111635
     52 C18        -7.4070   -0.3430    3.0680 c         1 MOL      0.496999
     53 O9         -8.6110   -0.1190    2.8660 o         1 MOL     -0.540507
     54 H23        -7.6510   -2.3990    1.5000 hn        1 MOL      0.309465
     55 H24        -5.9760   -1.8850    3.9280 h1        1 MOL      0.089227
     56 H25        -7.6100   -2.1000    4.1950 h1        1 MOL      0.089227
     57 N5         -6.4780    0.6370    3.0240 n         1 MOL     -0.387974
     58 C19        -6.9510    2.0620    2.9320 c3        1 MOL      0.007239
     59 C20        -7.3750    2.5600    1.5650 c         1 MOL      0.335990
     60 O10        -8.0000    3.6500    1.4110 o         1 MOL     -0.537316
     61 C21        -5.8820    3.0460    3.3500 c3        1 MOL     -0.195442
     62 C22        -4.5380    2.7660    2.6980 c         1 MOL      0.745245
     63 O11        -3.7750    1.9040    3.2160 o         1 MOL     -0.688301
     64 O12        -4.1840    3.3130    1.6370 o         1 MOL     -0.688301
     65 H26        -5.4980    0.4170    3.1050 hn        1 MOL      0.248530
     66 H27        -7.7780    2.2350    3.6230 h1        1 MOL      0.124799
     67 H28        -5.7480    2.9100    4.4220 hc        1 MOL      0.029503
     68 H29        -6.1700    4.0780    3.1720 hc        1 MOL      0.029503
     69 N6         -7.1830    1.7190    0.5530 n         1 MOL     -0.052788
     70 C23        -7.3690    2.1400   -0.8550 c3        1 MOL     -0.391821
     71 C24        -6.6400    3.2960   -1.4800 c         1 MOL      0.492309
     72 O13        -6.8960    3.6700   -2.6150 o         1 MOL     -0.582770
     73 H30        -6.8800    0.7820    0.7760 hn        1 MOL      0.218855
     74 H31        -8.4240    2.3560   -0.9940 h1        1 MOL      0.161854
     75 H32        -7.1520    1.3060   -1.5120 h1        1 MOL      0.161854
     76 N7         -5.7230    3.9210   -0.7460 n         1 MOL      0.033879
     77 C25        -4.9340    5.1330   -1.0270 c3        1 MOL      0.079361
     78 C26        -3.8040    5.0760   -2.1110 c         1 MOL      0.359551
     79 O14        -3.4680    6.1260   -2.7150 o         1 MOL     -0.496373
     80 C27        -5.8520    6.4420   -0.8800 c3        1 MOL     -0.137931
     81 C28        -6.6640    6.5090    0.4260 c3        1 MOL     -0.073899
     82 C29        -7.2580    7.9460    0.5990 c         1 MOL      0.633861
     83 N8         -8.3920    8.0130    1.2270 n         1 MOL     -0.788489
     84 O15        -6.7600    8.9800    0.1300 o         1 MOL     -0.574373
     85 H33        -5.4950    3.5750    0.1730 hn        1 MOL      0.004201
     86 H34        -4.3680    5.0240   -0.1040 h1        1 MOL      0.083626
     87 H35        -6.5690    6.5160   -1.7010 hc        1 MOL      0.044494
     88 H36        -5.1600    7.2880   -0.8170 hc        1 MOL      0.044494
     89 H37        -6.0180    6.2710    1.2620 hc        1 MOL      0.062484
     90 H38        -7.4490    5.7580    0.3800 hc        1 MOL      0.062484
     91 H39        -8.9370    7.2430    1.5790 hn        1 MOL      0.340784
     92 H40        -8.8840    8.8910    1.3360 hn        1 MOL      0.340784
     93 N9         -3.3910    3.8320   -2.4190 n         1 MOL     -0.280262
     94 C30        -2.4580    3.5970   -3.6070 c3        1 MOL     -0.010398
     95 C31        -1.0590    3.0230   -3.2240 c         1 MOL      0.503876
     96 O16        -0.1090    3.0290   -4.0500 o         1 MOL     -0.564905
     97 C32        -3.0040    2.5930   -4.5950 c3        1 MOL      0.330058
     98 C33        -3.5650    1.3140   -4.0040 c3        1 MOL     -0.339762
     99 C34        -4.1300    3.1320   -5.4810 c3        1 MOL     -0.339762
    100 H41        -3.6880    3.0380   -1.8840 hn        1 MOL      0.205938
    101 H42        -2.3000    4.4830   -4.2230 h1        1 MOL      0.071616
    102 H43        -2.2720    2.3800   -5.3850 hc        1 MOL     -0.041218
    103 H44        -2.8590    0.9530   -3.2650 hc        1 MOL      0.076041
    104 H45        -4.5620    1.5030   -3.6150 hc        1 MOL      0.076041
    105 H46        -3.7270    0.5940   -4.8090 hc        1 MOL      0.076041
    106 H47        -5.0730    3.2790   -4.9570 hc        1 MOL      0.076041
    107 H48        -3.9090    4.1330   -5.8620 hc        1 MOL      0.076041
    108 H49        -4.1970    2.4720   -6.3480 hc        1 MOL      0.076041
    109 N10        -0.9510    2.5430   -1.9820 n         1 MOL     -0.473748
    110 C35         0.2390    1.7780   -1.6170 c3        1 MOL      0.298519
    111 C36         1.0100    2.3300   -0.3500 c         1 MOL      0.490946
    112 O17         0.5210    3.1780    0.3390 o         1 MOL     -0.519401
    113 C37        -0.2040    0.2980   -1.4070 c3        1 MOL     -0.307571
    114 C38         1.0020   -0.6690   -1.0890 c         1 MOL      0.365591
    115 N11         0.8980   -1.2020    0.1360 n         1 MOL     -0.514520
    116 O18         2.0040   -0.7680   -1.7570 o         1 MOL     -0.387262
    117 H50        -1.7930    2.5640   -1.4210 hn        1 MOL      0.267658
    118 H51         1.0050    1.8430   -2.3790 h1        1 MOL      0.037789
    119 H52        -0.6700   -0.0000   -2.3530 hc        1 MOL      0.109768
    120 H53        -0.9560    0.3030   -0.6100 hc        1 MOL      0.109768
    121 H54         0.0760   -1.0270    0.6910 hn        1 MOL      0.306137
    122 H55         1.6080   -1.8700    0.3880 hn        1 MOL      0.306137
    123 N12         2.2500    1.8350   -0.1260 n         1 MOL     -0.322820
    124 C39         3.2060    2.1080    0.9450 c3        1 MOL      0.128367
    125 C40         4.6190    2.1580    0.3750 c         1 MOL      0.450629
    126 O19         4.9740    1.5090   -0.5820 o         1 MOL     -0.476514
    127 C41         3.0550    0.9520    1.9390 c3        1 MOL     -0.129101
    128 C42         4.0780    1.1170    3.0980 ca        1 MOL      0.057016
    129 C43         3.6340    1.8540    4.2620 ca        1 MOL     -0.181096
    130 C44         5.3150    0.4920    3.0250 ca        1 MOL     -0.181096
    131 C45         4.4740    2.0020    5.3310 ca        1 MOL     -0.220369
    132 C46         6.1550    0.6970    4.1780 ca        1 MOL     -0.220369
    133 C47         5.7660    1.3990    5.3460 ca        1 MOL      0.342620
    134 O20         6.6870    1.5400    6.3680 oh        1 MOL     -0.555464
    135 H56         2.4220    1.0680   -0.7550 hn        1 MOL      0.077463
    136 H57         3.0110    3.0360    1.4620 h1        1 MOL      0.045831
    137 H58         3.2760    0.0150    1.4410 hc        1 MOL      0.075789
    138 H59         2.0650    0.7760    2.3610 hc        1 MOL      0.075789
    139 H60         2.6100    2.1810    4.2390 ha        1 MOL      0.160150
    140 H61         5.5610   -0.1500    2.1910 ha        1 MOL      0.160150
    141 H62         4.1540    2.5110    6.2330 ha        1 MOL      0.099753
    142 H63         7.1030    0.1920    4.1180 ha        1 MOL      0.099753
    143 H64         6.5470    2.3030    6.9300 ho        1 MOL      0.395421
    144 N13         5.4890    2.9290    1.0390 n         1 MOL     -0.383899
    145 C48         6.8730    3.1600    0.6830 c3        1 MOL     -0.024188
    146 C49         7.8420    2.7860    1.8580 c         1 MOL      0.653090
    147 O21         7.9810    3.4700    2.8670 o         1 MOL     -0.578916
    148 C50         7.2280    4.5470    0.2250 c3        1 MOL      0.146436
    149 C51         6.4560    5.0380   -0.9940 c3        1 MOL     -0.253375
    150 C52         7.1780    6.2660   -1.6450 c         1 MOL      0.710490
    151 O22         7.0060    7.3340   -1.1170 o         1 MOL     -0.676354
    152 O23         7.9640    6.1670   -2.6830 o         1 MOL     -0.676354
    153 H65         5.1750    3.3370    1.9060 hn        1 MOL      0.259635
    154 H66         7.1190    2.6090   -0.2220 h1        1 MOL      0.053077
    155 H67         8.3040    4.4490    0.1490 hc        1 MOL     -0.011569
    156 H68         7.1200    5.2400    1.0670 hc        1 MOL     -0.011569
    157 H69         5.4310    5.3630   -0.7870 hc        1 MOL      0.048250
    158 H70         6.4710    4.1940   -1.6810 hc        1 MOL      0.048250
    159 N14         8.5560    1.6340    1.7790 n         1 MOL     -0.588075
    160 C53         8.3500    0.5460    0.8150 c3        1 MOL      0.191672
    161 C54         9.0740    0.8870   -0.5470 c         1 MOL      0.554343
    162 O24        10.1760    1.4390   -0.4790 o         1 MOL     -0.572463
    163 C55         9.0740   -0.6200    1.5020 c3        1 MOL     -0.396521
    164 C56         9.0820   -1.8770    0.7020 c3        1 MOL      0.290778
    165 C57         7.6730   -2.2510    0.3780 c         1 MOL      0.288518
    166 O25         7.1740   -1.9560   -0.7450 o         1 MOL     -0.571906
    167 O26         6.9400   -2.8930    1.0930 o         1 MOL     -0.571906
    168 H71         9.2030    1.4860    2.5450 hn        1 MOL      0.305312
    169 H72         7.2850    0.4340    0.6000 h1        1 MOL      0.070057
    170 H73         8.5640   -0.7420    2.4540 hc        1 MOL      0.136366
    171 H74        10.1000   -0.4060    1.7690 hc        1 MOL      0.136366
    172 H75         9.5710   -2.5990    1.3540 hc        1 MOL     -0.079032
    173 H76         9.6340   -1.7780   -0.2340 hc        1 MOL     -0.079032
    174 N15         8.4560    0.6450   -1.7270 n         1 MOL     -0.271827
    175 C58         8.9540    0.6760   -3.1130 c3        1 MOL     -0.187922
    176 H77         9.2320   -0.3310   -3.4210 h1        1 MOL      0.085504
    177 H78         8.1730    1.0560   -3.7720 h1        1 MOL      0.085504
    178 H79         9.8270    1.3260   -3.1710 h1        1 MOL      0.085504
    179 H80         7.4720    0.4230   -1.6070 hn        1 MOL      0.224634
    180 Ca1         5.8930   -4.0120   -1.3990 Ca        1 MOL      1.769607
    181 O27         3.9800   -2.2860   -0.8030 oh        1 MOL     -0.985884
    182 H81         3.4780   -2.4750   -0.0060 ho        1 MOL      0.451418
    183 H82         3.5810   -1.4850   -1.1550 ho        1 MOL      0.451418
    184 O28         7.4910   -3.8570   -3.7260 oh        1 MOL     -0.985884
    185 H83         7.2460   -3.1890   -4.3640 ho        1 MOL      0.451418
    186 H84         8.4150   -4.0380   -3.9020 ho        1 MOL      0.451418
    187 O29         8.3230   -5.0980   -0.8210 oh        1 MOL     -0.985884
    188 H85         8.8240   -5.4940   -0.1070 ho        1 MOL      0.451418
    189 H86         8.6890   -5.4830   -1.6210 ho        1 MOL      0.451418
    190 O30         4.9500   -5.2060    0.7100 oh        1 MOL     -0.985884
    191 H87         4.1640   -5.1160    1.2460 ho        1 MOL      0.451418
    192 H88         5.5770   -5.6660    1.2680 ho        1 MOL      0.451418
    193 O31         4.7410   -3.0910   -3.7840 oh        1 MOL     -0.985884
    194 H89         4.3090   -2.2490   -3.8930 ho        1 MOL      0.451418
    195 H90         4.4010   -3.6370   -4.4910 ho        1 MOL      0.451418
@<TRIPOS>BOND
     1    1    2 1   
     2    1    4 1   
     3    1    5 1   
     4    1    6 1   
     5    2    3 2   
     6    2    7 1   
     7    7    8 1   
     8    7   15 1   
     9    8    9 1   
    10    8   11 1   
    11    8   16 1   
    12    9   10 2   
    13    9   19 1   
    14   11   12 1   
    15   11   17 1   
    16   11   18 1   
    17   12   13 1   
    18   12   14 1   
    19   19   20 1   
    20   19   27 1   
    21   20   21 1   
    22   20   23 1   
    23   20   28 1   
    24   21   22 2   
    25   21   38 1   
    26   23   24 1   
    27   23   25 1   
    28   23   29 1   
    29   24   26 1   
    30   24   30 1   
    31   24   31 1   
    32   25   32 1   
    33   25   33 1   
    34   25   34 1   
    35   26   35 1   
    36   26   36 1   
    37   26   37 1   
    38   38   39 1   
    39   38   46 1   
    40   39   40 1   
    41   39   42 1   
    42   39   47 1   
    43   40   41 2   
    44   40   50 1   
    45   42   43 1   
    46   42   48 1   
    47   42   49 1   
    48   43   44 1   
    49   43   45 1   
    50   50   51 1   
    51   50   54 1   
    52   51   52 1   
    53   51   55 1   
    54   51   56 1   
    55   52   53 2   
    56   52   57 1   
    57   57   58 1   
    58   57   65 1   
    59   58   59 1   
    60   58   61 1   
    61   58   66 1   
    62   59   60 2   
    63   59   69 1   
    64   61   62 1   
    65   61   67 1   
    66   61   68 1   
    67   62   63 1   
    68   62   64 1   
    69   69   70 1   
    70   69   73 1   
    71   70   71 1   
    72   70   74 1   
    73   70   75 1   
    74   71   72 2   
    75   71   76 1   
    76   76   77 1   
    77   76   85 1   
    78   77   78 1   
    79   77   80 1   
    80   77   86 1   
    81   78   79 2   
    82   78   93 1   
    83   80   81 1   
    84   80   87 1   
    85   80   88 1   
    86   81   82 1   
    87   81   89 1   
    88   81   90 1   
    89   82   83 1   
    90   82   84 2   
    91   83   91 1   
    92   83   92 1   
    93   93   94 1   
    94   93  100 1   
    95   94   95 1   
    96   94   97 1   
    97   94  101 1   
    98   95   96 2   
    99   95  109 1   
   100   97   98 1   
   101   97   99 1   
   102   97  102 1   
   103   98  103 1   
   104   98  104 1   
   105   98  105 1   
   106   99  106 1   
   107   99  107 1   
   108   99  108 1   
   109  109  110 1   
   110  109  117 1   
   111  110  111 1   
   112  110  113 1   
   113  110  118 1   
   114  111  112 2   
   115  111  123 1   
   116  113  114 1   
   117  113  119 1   
   118  113  120 1   
   119  114  115 1   
   120  114  116 2   
   121  115  121 1   
   122  115  122 1   
   123  123  124 1   
   124  123  135 1   
   125  124  125 1   
   126  124  127 1   
   127  124  136 1   
   128  125  126 2   
   129  125  144 1   
   130  127  128 1   
   131  127  137 1   
   132  127  138 1   
   133  128  129 ar  
   134  128  130 ar  
   135  129  131 ar  
   136  129  139 1   
   137  130  132 ar  
   138  130  140 1   
   139  131  133 ar  
   140  131  141 1   
   141  132  133 ar  
   142  132  142 1   
   143  133  134 1   
   144  134  143 1   
   145  144  145 1   
   146  144  153 1   
   147  145  146 1   
   148  145  148 1   
   149  145  154 1   
   150  146  147 2   
   151  146  159 1   
   152  148  149 1   
   153  148  155 1   
   154  148  156 1   
   155  149  150 1   
   156  149  157 1   
   157  149  158 1   
   158  150  151 1   
   159  150  152 1   
   160  159  160 1   
   161  159  168 1   
   162  160  161 1   
   163  160  163 1   
   164  160  169 1   
   165  161  162 2   
   166  161  174 1   
   167  163  164 1   
   168  163  170 1   
   169  163  171 1   
   170  164  165 1   
   171  164  172 1   
   172  164  173 1   
   173  165  166 1   
   174  165  167 1   
   175  174  175 1   
   176  174  179 1   
   177  175  176 1   
   178  175  177 1   
   179  175  178 1   
   180  181  182 1   
   181  181  183 1   
   182  184  185 1   
   183  184  186 1   
   184  187  188 1   
   185  187  189 1   
   186  190  191 1   
   187  190  192 1   
   188  193  194 1   
   189  193  195 1   
@<TRIPOS>SUBSTRUCTURE
     1 MOL         1 TEMP              0 ****  ****    0 ROOT
