@<TRIPOS>MOLECULE
MOL
  195   189     1     0     0
SMALL
resp


@<TRIPOS>ATOM
      1 C1         -6.1720   -2.6440    5.0570 c3        1 MOL     -0.184251
      2 C2         -5.5030   -2.0340    3.7710 c         1 MOL      0.684319
      3 O1         -5.4510   -2.6300    2.6640 o         1 MOL     -0.631691
      4 H1         -6.6220   -1.8450    5.6450 hc        1 MOL      0.050913
      5 H2         -6.9420   -3.3570    4.7620 hc        1 MOL      0.050913
      6 H3         -5.4150   -3.1520    5.6550 hc        1 MOL      0.050913
      7 N1         -5.0840   -0.8110    3.8000 n         1 MOL     -0.508418
      8 C3         -4.7830   -0.0080    2.5920 c3        1 MOL      0.557680
      9 C4         -3.2660   -0.1150    2.1810 c         1 MOL     -0.022518
     10 O2         -2.9070    0.2850    1.0690 o         1 MOL     -0.097818
     11 C5         -4.9990    1.4700    2.7690 c3        1 MOL     -0.001545
     12 C6         -6.4880    1.8720    3.0380 c         1 MOL      0.616391
     13 O3         -6.9970    1.7040    4.1680 o         1 MOL     -0.680048
     14 O4         -7.1940    2.4380    2.1340 o         1 MOL     -0.680048
     15 H4         -5.3250   -0.3570    4.6670 hn        1 MOL      0.223358
     16 H5         -5.2940   -0.3640    1.6920 h1        1 MOL     -0.070363
     17 H6         -4.5410    2.1130    2.0240 hc        1 MOL     -0.084449
     18 H7         -4.5420    1.7460    3.7120 hc        1 MOL     -0.084449
     19 N2         -2.4420   -0.6670    3.0250 n         1 MOL     -0.329484
     20 C7         -0.9850   -0.8010    2.7160 c3        1 MOL      0.259096
     21 C8         -0.7690   -2.1700    2.1000 c         1 MOL      0.240736
     22 O5         -1.3910   -3.1650    2.4460 o         1 MOL     -0.472280
     23 C9         -0.0730   -0.6750    3.9160 c3        1 MOL     -0.113942
     24 C10        -0.1970    0.6020    4.7330 c3        1 MOL     -0.081572
     25 C11         0.4880    0.4810    6.0700 c3        1 MOL     -0.115199
     26 C12         0.4150    1.7330    6.9280 c3        1 MOL      0.120033
     27 N3          0.9460    1.6030    8.3220 n4        1 MOL     -0.297115
     28 H8         -2.7220   -0.9500    3.9510 hn        1 MOL      0.238866
     29 H9         -0.7200   -0.1290    1.9000 h1        1 MOL     -0.025948
     30 H10         0.9870   -0.6430    3.6420 hc        1 MOL      0.072244
     31 H11        -0.1770   -1.5060    4.6070 hc        1 MOL      0.072244
     32 H12        -1.2580    0.8450    4.8280 hc        1 MOL      0.056485
     33 H13         0.2370    1.4480    4.1970 hc        1 MOL      0.056485
     34 H14         1.5230    0.2870    5.8190 hc        1 MOL      0.063856
     35 H15         0.1120   -0.3630    6.6620 hc        1 MOL      0.063856
     36 H16        -0.6100    2.0520    7.1030 hx        1 MOL      0.060668
     37 H17         0.9430    2.5580    6.4570 hx        1 MOL      0.060668
     38 H18         1.4040    2.4730    8.5820 hn        1 MOL      0.283311
     39 H19         0.2410    1.2910    8.9790 hn        1 MOL      0.283311
     40 H20         1.6440    0.8940    8.4560 hn        1 MOL      0.283311
     41 N4          0.0940   -2.3880    1.0700 n         1 MOL      0.016904
     42 C13         0.9580   -1.4080    0.2940 c3        1 MOL     -0.425065
     43 C14         1.7090   -0.3210    0.9760 c         1 MOL      0.600958
     44 O6          1.2240    0.8580    1.0390 o         1 MOL     -0.511563
     45 C15         0.1950   -0.9280   -0.9280 c3        1 MOL     -0.629851
     46 C16        -0.1040   -2.0560   -1.8690 c         1 MOL      1.002180
     47 O7          0.7850   -2.8880   -2.2530 o         1 MOL     -0.784280
     48 O8         -1.2670   -2.2300   -2.2640 o         1 MOL     -0.784280
     49 H21        -0.0410   -3.3160    0.7050 hn        1 MOL      0.122497
     50 H22         1.7890   -2.0100   -0.0870 h1        1 MOL      0.128112
     51 H23         0.7940   -0.1730   -1.4290 hc        1 MOL      0.235310
     52 H24        -0.7060   -0.4120   -0.5860 hc        1 MOL      0.235310
     53 N5          2.9170   -0.5360    1.5390 n         1 MOL     -0.560243
     54 C17         3.6720   -1.8210    1.7040 c3        1 MOL      0.357515
     55 C18         4.6070   -1.8480    2.9060 c         1 MOL      0.464453
     56 O9          4.5400   -1.0230    3.8120 o         1 MOL     -0.532272
     57 H25         3.3740    0.2490    1.9790 hn        1 MOL      0.323464
     58 H26         4.1770   -2.0500    0.7650 h1        1 MOL     -0.044948
     59 H27         2.9030   -2.5490    1.9570 h1        1 MOL     -0.044948
     60 N6          5.5110   -2.8300    2.9610 n         1 MOL     -0.441320
     61 C19         5.9570   -3.7000    1.9210 c3        1 MOL      0.020517
     62 C20         6.6780   -2.9940    0.7520 c         1 MOL      0.519812
     63 O10         7.5220   -2.1440    0.9090 o         1 MOL     -0.407315
     64 C21         6.9000   -4.7520    2.5370 c3        1 MOL     -0.090850
     65 C22         8.1420   -4.0940    3.1580 c         1 MOL      0.662871
     66 O11         7.9420   -3.3180    4.0900 o         1 MOL     -0.639779
     67 O12         9.2800   -4.4450    2.7660 o         1 MOL     -0.639779
     68 H28         6.1370   -2.8050    3.7610 hn        1 MOL      0.285726
     69 H29         5.0850   -4.1790    1.4530 h1        1 MOL     -0.017548
     70 H30         7.2220   -5.3800    1.7080 hc        1 MOL      0.005415
     71 H31         6.3770   -5.4040    3.2470 hc        1 MOL      0.005415
     72 N7          6.6080   -3.6140   -0.4010 n         1 MOL     -0.234864
     73 C23         7.3020   -3.1120   -1.5860 c3        1 MOL     -0.402676
     74 C24         7.0690   -1.6230   -1.9790 c         1 MOL      0.518577
     75 O13         7.9450   -0.7360   -2.1550 o         1 MOL     -0.497869
     76 H32         5.9540   -4.3670   -0.5630 hn        1 MOL      0.216669
     77 H33         7.0130   -3.6620   -2.4720 h1        1 MOL      0.175034
     78 H34         8.3890   -3.1490   -1.4620 h1        1 MOL      0.175034
     79 N8          5.7670   -1.2380   -2.0610 n         1 MOL     -0.466611
     80 C25         5.3150    0.1310   -2.2470 c3        1 MOL      0.108572
     81 C26         5.6080    1.0880   -1.0790 c         1 MOL      0.562517
     82 O14         5.7890    0.6520    0.0920 o         1 MOL     -0.501139
     83 C27         3.7490    0.2300   -2.5170 c3        1 MOL      0.253986
     84 C28         3.1920   -0.5510   -3.6940 c3        1 MOL     -0.364328
     85 O15         3.2340    1.5180   -2.6890 oh        1 MOL     -0.566503
     86 H35         5.0510   -1.9440   -1.9060 hn        1 MOL      0.255546
     87 H36         5.8860    0.4610   -3.1130 h1        1 MOL      0.042634
     88 H37         3.3640   -0.1130   -1.5540 h1        1 MOL      0.091292
     89 H38         2.3750    1.6180   -2.2820 ho        1 MOL      0.356068
     90 H39         2.1130   -0.7180   -3.6420 hc        1 MOL      0.096754
     91 H40         3.4060    0.0060   -4.6050 hc        1 MOL      0.096754
     92 H41         3.6910   -1.5160   -3.6940 hc        1 MOL      0.096754
     93 N9          5.7470    2.4020   -1.3790 n         1 MOL     -0.398007
     94 C29         5.9500    3.5870   -0.5270 c3        1 MOL     -0.078675
     95 C30         4.6640    4.4680   -0.3800 c         1 MOL      0.400346
     96 O16         4.7180    5.5490    0.1890 o         1 MOL     -0.521861
     97 C31         7.1960    4.3450   -0.9250 c3        1 MOL      0.115451
     98 C32         6.9410    5.0870   -2.3210 c3        1 MOL      0.174915
     99 C33         8.4400    3.4320   -1.0810 c3        1 MOL     -0.226133
    100 C34         8.0460    5.9380   -2.8890 c3        1 MOL     -0.204127
    101 H42         5.5040    2.5310   -2.3510 hn        1 MOL      0.252927
    102 H43         6.2100    3.2470    0.4800 h1        1 MOL      0.115733
    103 H44         7.3510    5.1280   -0.1840 hc        1 MOL      0.013365
    104 H45         6.0790    5.7520   -2.2570 hc        1 MOL     -0.016273
    105 H46         6.7130    4.3570   -3.0880 hc        1 MOL     -0.016273
    106 H47         9.3400    4.0180   -1.2580 hc        1 MOL      0.064406
    107 H48         8.6080    2.8460   -0.1740 hc        1 MOL      0.064406
    108 H49         8.2410    2.6680   -1.8420 hc        1 MOL      0.064406
    109 H50         7.6770    6.6950   -3.5800 hc        1 MOL      0.034082
    110 H51         8.5660    6.4560   -2.0890 hc        1 MOL      0.034082
    111 H52         8.7510    5.3210   -3.4420 hc        1 MOL      0.034082
    112 N10         3.6430    4.0610   -1.0840 n         1 MOL     -0.102160
    113 C35         2.2560    4.6050   -1.1310 c3        1 MOL     -0.089616
    114 C36         1.1130    3.5910   -0.9450 c         1 MOL      0.599722
    115 O17         1.0750    2.5720   -1.6400 o         1 MOL     -0.447502
    116 C37         2.0310    5.4310   -2.4120 c3        1 MOL      0.290375
    117 C38         2.2000    4.6140   -3.6810 c3        1 MOL     -0.281544
    118 O18         2.9020    6.5270   -2.4610 oh        1 MOL     -0.587055
    119 H53         3.7660    3.1790   -1.5620 hn        1 MOL      0.024158
    120 H54         2.1010    5.3650   -0.3590 h1        1 MOL      0.077097
    121 H55         0.9890    5.7510   -2.3710 h1        1 MOL     -0.009727
    122 H56         2.4250    7.1340   -3.0170 ho        1 MOL      0.393213
    123 H57         3.0120    3.9040   -3.5330 hc        1 MOL      0.071809
    124 H58         1.3400    3.9700   -3.8390 hc        1 MOL      0.071809
    125 H59         2.5220    5.2010   -4.5390 hc        1 MOL      0.071809
    126 N11         0.1440    3.9400   -0.0980 n         1 MOL     -0.550406
    127 C39        -1.0680    3.0630    0.2360 c3        1 MOL      0.043490
    128 C40        -2.0860    3.0670   -0.9260 c         1 MOL      0.421296
    129 O19        -2.0590    3.9660   -1.8210 o         1 MOL     -0.523339
    130 C41        -1.7270    3.5980    1.5520 c3        1 MOL      0.407670
    131 C42        -2.5030    4.8980    1.4310 c3        1 MOL     -0.251071
    132 O20        -0.7750    3.8920    2.5120 oh        1 MOL     -0.634699
    133 H60         0.2120    4.8180    0.3960 hn        1 MOL      0.346997
    134 H61        -0.8200    2.0040    0.3130 h1        1 MOL      0.099976
    135 H62        -2.2910    2.8210    2.0600 h1        1 MOL      0.039242
    136 H63        -1.2460    3.9570    3.3450 ho        1 MOL      0.365635
    137 H64        -2.8570    5.1240    2.4280 hc        1 MOL      0.060969
    138 H65        -1.9040    5.6410    0.9000 hc        1 MOL      0.060969
    139 H66        -3.3340    4.6480    0.7590 hc        1 MOL      0.060969
    140 N12        -3.0540    2.1220   -0.9940 n         1 MOL     -0.075874
    141 C43        -4.3380    2.1740   -1.8200 c3        1 MOL     -0.350535
    142 C44        -4.9760    0.8210   -2.1160 c         1 MOL      0.912988
    143 O21        -5.6620    0.6490   -3.1080 o         1 MOL     -0.692889
    144 C45        -5.3390    3.0750   -1.1260 c3        1 MOL      0.296482
    145 C46        -6.5310    3.5450   -1.9930 c3        1 MOL     -0.124050
    146 C47        -7.4770    4.3650   -1.1530 c3        1 MOL     -0.053787
    147 C48        -8.7070    4.8360   -1.9020 c3        1 MOL      0.266224
    148 N13        -9.5890    5.6880   -1.0260 n4        1 MOL     -0.473057
    149 H67        -2.8760    1.4010   -0.3090 hn        1 MOL     -0.166649
    150 H68        -4.1040    2.5970   -2.8080 h1        1 MOL      0.113984
    151 H69        -4.9410    4.0110   -0.7150 hc        1 MOL     -0.042056
    152 H70        -5.6960    2.5380   -0.2480 hc        1 MOL     -0.042056
    153 H71        -7.0850    2.6970   -2.3920 hc        1 MOL      0.043026
    154 H72        -6.0860    4.2340   -2.7130 hc        1 MOL      0.043026
    155 H73        -6.8980    5.2440   -0.8610 hc        1 MOL      0.027323
    156 H74        -7.8060    3.7140   -0.3440 hc        1 MOL      0.027323
    157 H75        -9.2640    4.0210   -2.3670 hx        1 MOL      0.018797
    158 H76        -8.3510    5.4190   -2.7560 hx        1 MOL      0.018797
    159 H77        -9.7770    5.1720   -0.1740 hn        1 MOL      0.343600
    160 H78        -9.2070    6.5600   -0.6930 hn        1 MOL      0.343600
    161 H79       -10.4950    5.8050   -1.4590 hn        1 MOL      0.343600
    162 N14        -4.6710   -0.2220   -1.3210 n         1 MOL     -0.540300
    163 C49        -5.1340   -1.5580   -1.4340 c3        1 MOL     -0.024178
    164 C50        -6.6570   -1.6090   -1.0430 c         1 MOL      0.263650
    165 O22        -7.0520   -1.1470    0.0980 o         1 MOL     -0.449145
    166 C51        -4.2620   -2.4390   -0.5300 c3        1 MOL      0.120176
    167 C52        -4.6370   -3.8980   -0.3650 c3        1 MOL     -0.783308
    168 C53        -4.5410   -4.6480   -1.7040 c         1 MOL      0.811774
    169 O23        -5.5720   -4.7590   -2.3740 o         1 MOL     -0.761083
    170 O24        -3.4430   -5.1660   -2.0760 o         1 MOL     -0.761083
    171 H80        -4.1810    0.0120   -0.4660 hn        1 MOL      0.298574
    172 H81        -4.9760   -1.9220   -2.4550 h1        1 MOL      0.149623
    173 H82        -4.3850   -2.0430    0.4710 hc        1 MOL      0.056036
    174 H83        -3.2090   -2.2680   -0.7620 hc        1 MOL      0.056036
    175 H84        -5.6880   -4.0070   -0.0960 hc        1 MOL      0.257815
    176 H85        -3.9660   -4.3260    0.3780 hc        1 MOL      0.257815
    177 N15        -7.4700   -2.1770   -1.9440 n         1 MOL     -0.085198
    178 C54        -8.9780   -2.2520   -1.7790 c3        1 MOL     -0.108079
    179 H86        -9.4450   -1.4500   -2.3490 h1        1 MOL      0.070531
    180 H87        -9.3370   -3.2140   -2.1440 h1        1 MOL      0.070531
    181 H88        -9.2340   -2.1440   -0.7250 h1        1 MOL      0.070531
    182 H89        -7.0400   -2.4350   -2.8200 hn        1 MOL      0.235173
    183 Ca1        -1.0620   -4.6520   -2.8200 Ca        1 MOL      1.690390
    184 O25        -3.2290   -4.0810   -4.8190 oh        1 MOL     -0.830757
    185 H90        -3.8240   -3.3690   -4.5770 ho        1 MOL      0.412357
    186 H91        -3.7480   -4.8770   -4.7180 ho        1 MOL      0.412357
    187 O26         0.1180   -3.6010   -5.0590 oh        1 MOL     -0.830757
    188 H92         1.0210   -3.5800   -5.3760 ho        1 MOL      0.412357
    189 H93        -0.4160   -3.4740   -5.8460 ho        1 MOL      0.412357
    190 O27        -2.0710   -7.5700   -2.1890 oh        1 MOL     -0.830757
    191 H94        -2.8370   -7.0090   -2.2640 ho        1 MOL      0.412357
    192 H95        -2.4160   -8.4360   -1.9850 ho        1 MOL      0.412357
    193 O28        -0.7810   -6.2710   -4.9170 oh        1 MOL     -0.830757
    194 H96        -0.6580   -7.2000   -4.7130 ho        1 MOL      0.412357
    195 H97        -0.3190   -6.1520   -5.7430 ho        1 MOL      0.412357
@<TRIPOS>BOND
     1    1    2 1   
     2    1    4 1   
     3    1    5 1   
     4    1    6 1   
     5    2    3 2   
     6    2    7 1   
     7    7    8 1   
     8    7   15 1   
     9    8    9 1   
    10    8   11 1   
    11    8   16 1   
    12    9   10 2   
    13    9   19 1   
    14   11   12 1   
    15   11   17 1   
    16   11   18 1   
    17   12   13 1   
    18   12   14 1   
    19   19   20 1   
    20   19   28 1   
    21   20   21 1   
    22   20   23 1   
    23   20   29 1   
    24   21   22 2   
    25   21   41 1   
    26   23   24 1   
    27   23   30 1   
    28   23   31 1   
    29   24   25 1   
    30   24   32 1   
    31   24   33 1   
    32   25   26 1   
    33   25   34 1   
    34   25   35 1   
    35   26   27 1   
    36   26   36 1   
    37   26   37 1   
    38   27   38 1   
    39   27   39 1   
    40   27   40 1   
    41   41   42 1   
    42   41   49 1   
    43   42   43 1   
    44   42   45 1   
    45   42   50 1   
    46   43   44 2   
    47   43   53 1   
    48   45   46 1   
    49   45   51 1   
    50   45   52 1   
    51   46   47 1   
    52   46   48 1   
    53   53   54 1   
    54   53   57 1   
    55   54   55 1   
    56   54   58 1   
    57   54   59 1   
    58   55   56 2   
    59   55   60 1   
    60   60   61 1   
    61   60   68 1   
    62   61   62 1   
    63   61   64 1   
    64   61   69 1   
    65   62   63 2   
    66   62   72 1   
    67   64   65 1   
    68   64   70 1   
    69   64   71 1   
    70   65   66 1   
    71   65   67 1   
    72   72   73 1   
    73   72   76 1   
    74   73   74 1   
    75   73   77 1   
    76   73   78 1   
    77   74   75 2   
    78   74   79 1   
    79   79   80 1   
    80   79   86 1   
    81   80   81 1   
    82   80   83 1   
    83   80   87 1   
    84   81   82 2   
    85   81   93 1   
    86   83   84 1   
    87   83   85 1   
    88   83   88 1   
    89   84   90 1   
    90   84   91 1   
    91   84   92 1   
    92   85   89 1   
    93   93   94 1   
    94   93  101 1   
    95   94   95 1   
    96   94   97 1   
    97   94  102 1   
    98   95   96 2   
    99   95  112 1   
   100   97   98 1   
   101   97   99 1   
   102   97  103 1   
   103   98  100 1   
   104   98  104 1   
   105   98  105 1   
   106   99  106 1   
   107   99  107 1   
   108   99  108 1   
   109  100  109 1   
   110  100  110 1   
   111  100  111 1   
   112  112  113 1   
   113  112  119 1   
   114  113  114 1   
   115  113  116 1   
   116  113  120 1   
   117  114  115 2   
   118  114  126 1   
   119  116  117 1   
   120  116  118 1   
   121  116  121 1   
   122  117  123 1   
   123  117  124 1   
   124  117  125 1   
   125  118  122 1   
   126  126  127 1   
   127  126  133 1   
   128  127  128 1   
   129  127  130 1   
   130  127  134 1   
   131  128  129 2   
   132  128  140 1   
   133  130  131 1   
   134  130  132 1   
   135  130  135 1   
   136  131  137 1   
   137  131  138 1   
   138  131  139 1   
   139  132  136 1   
   140  140  141 1   
   141  140  149 1   
   142  141  142 1   
   143  141  144 1   
   144  141  150 1   
   145  142  143 2   
   146  142  162 1   
   147  144  145 1   
   148  144  151 1   
   149  144  152 1   
   150  145  146 1   
   151  145  153 1   
   152  145  154 1   
   153  146  147 1   
   154  146  155 1   
   155  146  156 1   
   156  147  148 1   
   157  147  157 1   
   158  147  158 1   
   159  148  159 1   
   160  148  160 1   
   161  148  161 1   
   162  162  163 1   
   163  162  171 1   
   164  163  164 1   
   165  163  166 1   
   166  163  172 1   
   167  164  165 2   
   168  164  177 1   
   169  166  167 1   
   170  166  173 1   
   171  166  174 1   
   172  167  168 1   
   173  167  175 1   
   174  167  176 1   
   175  168  169 1   
   176  168  170 1   
   177  177  178 1   
   178  177  182 1   
   179  178  179 1   
   180  178  180 1   
   181  178  181 1   
   182  184  185 1   
   183  184  186 1   
   184  187  188 1   
   185  187  189 1   
   186  190  191 1   
   187  190  192 1   
   188  193  194 1   
   189  193  195 1   
@<TRIPOS>SUBSTRUCTURE
     1 MOL         1 TEMP              0 ****  ****    0 ROOT
