@<TRIPOS>MOLECULE
MOL
  188   182     1     0     0
SMALL
resp


@<TRIPOS>ATOM
      1 C1         -5.1640    0.9850   -4.3070 c3        1 MOL     -0.425372
      2 C2         -5.8620    0.6600   -2.9650 c         1 MOL      0.786340
      3 O1         -5.1730    0.1840   -2.0910 o         1 MOL     -0.606946
      4 H1         -4.7090    0.0800   -4.7080 hc        1 MOL      0.107777
      5 H2         -5.8980    1.3670   -5.0170 hc        1 MOL      0.107777
      6 H3         -4.3920    1.7370   -4.1430 hc        1 MOL      0.107777
      7 N1         -7.2150    0.8590   -2.7550 n         1 MOL     -0.534871
      8 C3         -7.8710    0.4450   -1.4770 c3        1 MOL      0.100563
      9 C4         -7.7510   -0.9760   -1.0140 c         1 MOL      0.511869
     10 O2         -7.9530   -1.3000    0.1270 o         1 MOL     -0.499884
     11 C5         -7.5230    1.5870   -0.4310 c3        1 MOL     -0.374843
     12 C6         -7.7280    3.0740   -0.8670 c         1 MOL      0.829089
     13 O3         -7.1500    3.9630   -0.2500 o         1 MOL     -0.707691
     14 O4         -8.4870    3.2900   -1.8270 o         1 MOL     -0.707691
     15 H4         -7.8410    1.1290   -3.5050 hn        1 MOL      0.298542
     16 H5         -8.9570    0.4930   -1.5350 h1        1 MOL      0.089951
     17 H6         -6.4670    1.5710   -0.1700 hc        1 MOL      0.091520
     18 H7         -8.1650    1.4150    0.4290 hc        1 MOL      0.091520
     19 N2         -7.2950   -1.8060   -1.9580 n         1 MOL     -0.448787
     20 C7         -6.9340   -3.1960   -1.7960 c3        1 MOL      0.070933
     21 C8         -5.5990   -3.5030   -1.1000 c         1 MOL      0.630389
     22 O5         -5.5010   -4.6570   -0.7810 o         1 MOL     -0.604881
     23 C9         -7.0230   -3.8930   -3.1900 c3        1 MOL     -0.240645
     24 C10        -6.2730   -3.3050   -4.3050 c3        1 MOL      0.023967
     25 C11        -4.7300   -3.6380   -4.3300 c3        1 MOL     -0.194589
     26 C12        -4.2440   -3.4870   -5.7550 c3        1 MOL      0.245714
     27 N3         -2.8510   -4.0220   -6.0100 n4        1 MOL     -0.443344
     28 H8         -7.1510   -1.3710   -2.8520 hn        1 MOL      0.177353
     29 H9         -7.7070   -3.6500   -1.1660 h1        1 MOL      0.107033
     30 H10        -8.0640   -3.8370   -3.4940 hc        1 MOL      0.099157
     31 H11        -6.8190   -4.9440   -3.0350 hc        1 MOL      0.099157
     32 H12        -6.4050   -2.2300   -4.4560 hc        1 MOL      0.024581
     33 H13        -6.6720   -3.7170   -5.2300 hc        1 MOL      0.024581
     34 H14        -4.6630   -4.7150   -4.1720 hc        1 MOL      0.087955
     35 H15        -4.1270   -3.0450   -3.6500 hc        1 MOL      0.087955
     36 H16        -4.2750   -2.4310   -6.0330 hx        1 MOL      0.018796
     37 H17        -4.9670   -3.9270   -6.4410 hx        1 MOL      0.018796
     38 H18        -2.6390   -4.9510   -5.6710 hn        1 MOL      0.332256
     39 H19        -2.7200   -4.0660   -7.0130 hn        1 MOL      0.332256
     40 H20        -2.2160   -3.4070   -5.5330 hn        1 MOL      0.332256
     41 N4         -4.7320   -2.5590   -0.8940 n         1 MOL     -0.480856
     42 C13        -3.4840   -2.7640   -0.2270 c3        1 MOL      0.052281
     43 C14        -3.6760   -3.1810    1.2570 c         1 MOL      0.527451
     44 O6         -4.5590   -2.6580    1.9660 o         1 MOL     -0.479663
     45 C15        -2.6290   -1.5010   -0.3810 c3        1 MOL     -0.062480
     46 C16        -1.2730   -1.6720    0.3390 c         1 MOL      0.961289
     47 O7         -1.2110   -1.8940    1.5750 o         1 MOL     -0.852059
     48 O8         -0.2710   -1.7880   -0.3650 o         1 MOL     -0.852059
     49 H21        -5.0320   -1.6280   -1.1470 hn        1 MOL      0.327160
     50 H22        -3.0060   -3.6250   -0.6970 h1        1 MOL     -0.032827
     51 H23        -3.0910   -0.7280    0.2270 hc        1 MOL      0.022177
     52 H24        -2.6500   -1.1410   -1.4120 hc        1 MOL      0.022177
     53 N5         -3.0150   -4.2550    1.7230 n         1 MOL     -0.203231
     54 C17        -3.2130   -4.8030    3.1310 c3        1 MOL     -0.403763
     55 C18        -2.9120   -3.8010    4.3320 c         1 MOL      0.679103
     56 O9         -3.3660   -3.9950    5.4260 o         1 MOL     -0.560452
     57 H25        -2.2990   -4.6280    1.1090 hn        1 MOL      0.200481
     58 H26        -2.4630   -5.5880    3.2620 h1        1 MOL      0.164043
     59 H27        -4.2150   -5.1920    3.3360 h1        1 MOL      0.164043
     60 N6         -2.2830   -2.6300    4.0510 n         1 MOL     -0.491325
     61 C19        -2.0800   -1.5750    5.0570 c3        1 MOL     -0.024523
     62 C20        -2.4360   -0.1190    4.5440 c         1 MOL      0.477850
     63 O10        -2.8700    0.7180    5.3770 o         1 MOL     -0.556162
     64 C21        -0.6460   -1.6600    5.6930 c3        1 MOL     -0.316832
     65 C22         0.4220   -0.9940    4.8590 c         1 MOL      0.570211
     66 N7          0.9950    0.0820    5.2960 n         1 MOL     -0.756545
     67 O11         0.7890   -1.5200    3.8400 o         1 MOL     -0.543840
     68 H28        -1.8920   -2.6390    3.1270 hn        1 MOL      0.313795
     69 H29        -2.8340   -1.7700    5.8220 h1        1 MOL      0.170272
     70 H30        -0.3320   -2.6960    5.8310 hc        1 MOL      0.114707
     71 H31        -0.6730   -1.1130    6.6250 hc        1 MOL      0.114707
     72 H32         0.6620    0.3950    6.2000 hn        1 MOL      0.374813
     73 H33         1.7720    0.5760    4.8660 hn        1 MOL      0.374813
     74 N8         -2.5380    0.0560    3.2130 n         1 MOL     -0.041741
     75 C23        -3.0690    1.2460    2.5460 c3        1 MOL     -0.319817
     76 C24        -1.8740    2.0160    1.8610 c         1 MOL      0.614784
     77 O12        -0.7830    1.9630    2.3650 o         1 MOL     -0.515821
     78 H34        -2.1940   -0.6990    2.6390 hn        1 MOL      0.107452
     79 H35        -3.6540    1.8080    3.2790 h1        1 MOL      0.144073
     80 H36        -3.8060    0.9820    1.7960 h1        1 MOL      0.144073
     81 N9         -2.1470    2.7610    0.7880 n         1 MOL     -0.505867
     82 C25        -1.1910    3.6560    0.0750 c3        1 MOL      0.227799
     83 C26        -0.1480    2.7150   -0.5510 c         1 MOL      0.346726
     84 O13        -0.4280    1.5930   -0.8520 o         1 MOL     -0.496891
     85 C27        -1.8920    4.4390   -1.0080 c3        1 MOL     -0.220170
     86 C28        -2.8010    5.5410   -0.4760 ca        1 MOL      0.084127
     87 C29        -4.1640    5.3560   -0.4760 ca        1 MOL     -0.214656
     88 C30        -2.2790    6.6760    0.1510 ca        1 MOL     -0.214656
     89 C31        -5.0380    6.2530    0.1340 ca        1 MOL     -0.211607
     90 C32        -3.0830    7.5720    0.8170 ca        1 MOL     -0.211607
     91 C33        -4.4980    7.3760    0.8060 ca        1 MOL      0.413767
     92 O14        -5.3000    8.1350    1.5260 oh        1 MOL     -0.625685
     93 H37        -3.0350    2.5490    0.3400 hn        1 MOL      0.342786
     94 H38        -0.7440    4.3530    0.7860 h1        1 MOL      0.036745
     95 H39        -2.5190    3.7580   -1.5900 hc        1 MOL      0.084741
     96 H40        -1.1250    4.8720   -1.6500 hc        1 MOL      0.084741
     97 H41        -4.6470    4.5620   -1.0230 ha        1 MOL      0.121546
     98 H42        -1.2140    6.8620    0.1080 ha        1 MOL      0.121546
     99 H43        -6.1130    6.2160    0.0310 ha        1 MOL      0.132016
    100 H44        -2.5920    8.3570    1.3750 ha        1 MOL      0.132016
    101 H45        -6.2020    7.8520    1.7010 ho        1 MOL      0.474837
    102 N10         1.0750    3.2150   -0.6100 n         1 MOL     -0.562321
    103 C34         2.2470    2.3850   -1.0120 c3        1 MOL     -0.176766
    104 C35         3.3840    2.6780   -0.0540 c         1 MOL      0.710304
    105 O15         4.1080    1.6980    0.1780 o         1 MOL     -0.609136
    106 C36         2.7100    2.7520   -2.4610 c3        1 MOL      0.279788
    107 C37         1.4460    2.8680   -3.3760 c3        1 MOL     -0.108104
    108 C38         3.7560    1.7430   -2.9510 c3        1 MOL     -0.803688
    109 C39         1.8500    3.2890   -4.8110 c3        1 MOL     -0.595478
    110 H46         1.1690    4.1860   -0.3670 hn        1 MOL      0.311256
    111 H47         1.9890    1.3330   -0.9170 h1        1 MOL      0.167403
    112 H48         3.2410    3.6980   -2.4190 hc        1 MOL     -0.027098
    113 H49         0.7960    3.6760   -3.0360 hc        1 MOL      0.143060
    114 H50         0.9540    1.9070   -3.2950 hc        1 MOL      0.143060
    115 H51         3.3250    0.8080   -3.3190 hc        1 MOL      0.200631
    116 H52         4.3230    2.3250   -3.6850 hc        1 MOL      0.200631
    117 H53         4.4700    1.6750   -2.1250 hc        1 MOL      0.200631
    118 H54         2.3350    4.2610   -4.8150 hc        1 MOL      0.163442
    119 H55         2.5890    2.5960   -5.1920 hc        1 MOL      0.163442
    120 H56         1.0010    3.1870   -5.4860 hc        1 MOL      0.163442
    121 N11         3.6180    3.9380    0.3820 n         1 MOL     -0.439187
    122 C40         4.8250    4.2710    1.1790 c3        1 MOL     -0.061476
    123 C41         6.1960    3.9920    0.6020 c         1 MOL      0.219970
    124 O16         7.1970    3.7790    1.3270 o         1 MOL     -0.442786
    125 C42         4.6670    5.7390    1.6790 c3        1 MOL      0.251559
    126 O17         3.4990    5.8210    2.4760 oh        1 MOL     -0.610831
    127 H57         2.9100    4.6380    0.2250 hn        1 MOL      0.275674
    128 H58         4.7970    3.6330    2.0670 h1        1 MOL      0.164401
    129 H59         4.5690    6.4440    0.8460 h1        1 MOL      0.020159
    130 H60         5.5290    6.1150    2.2220 h1        1 MOL      0.020159
    131 H61         3.1400    6.7100    2.4690 ho        1 MOL      0.407281
    132 N12         6.2070    3.9950   -0.7340 n         1 MOL     -0.076505
    133 C43         7.2790    3.5220   -1.5860 c3        1 MOL      0.040606
    134 C44         7.7960    2.0590   -1.2860 c         1 MOL      0.404429
    135 O18         9.0260    1.7580   -1.5580 o         1 MOL     -0.492429
    136 C45         8.3270    4.6120   -1.6970 c3        1 MOL     -0.528121
    137 H62         5.4020    4.4040   -1.1930 hn        1 MOL      0.173719
    138 H63         6.7090    3.3950   -2.5080 h1        1 MOL      0.078293
    139 H64         9.0650    4.4380   -2.4780 hc        1 MOL      0.162550
    140 H65         7.9010    5.6070   -1.8020 hc        1 MOL      0.162550
    141 H66         8.8570    4.6750   -0.7430 hc        1 MOL      0.162550
    142 N13         6.9480    1.2420   -0.5830 n         1 MOL     -0.338940
    143 C46         7.2310   -0.0750    0.0180 c3        1 MOL      0.252560
    144 C47         6.8150   -1.3340   -0.7920 c         1 MOL      0.468839
    145 O19         5.8670   -1.2460   -1.5840 o         1 MOL     -0.463473
    146 C48         6.5950   -0.0560    1.4220 c3        1 MOL     -0.166683
    147 H67         6.1080    1.6490   -0.2010 hn        1 MOL      0.316012
    148 H68         8.2920   -0.2930    0.1250 h1        1 MOL     -0.019655
    149 H69         5.5300   -0.1080    1.1760 hc        1 MOL      0.030420
    150 H70         6.8170   -0.9600    1.9780 hc        1 MOL      0.030420
    151 H71         6.8000    0.8600    1.9830 hc        1 MOL      0.030420
    152 N14         7.4990   -2.4530   -0.5150 n         1 MOL     -0.616085
    153 C49         7.3000   -3.7610   -1.1360 c3        1 MOL     -0.272737
    154 C50         7.6540   -3.8600   -2.6210 c         1 MOL      0.592690
    155 O20         7.6410   -4.9180   -3.2180 o         1 MOL     -0.551759
    156 C51         5.8740   -4.2400   -0.9080 c3        1 MOL      0.148553
    157 C52         5.5060   -4.4040    0.6380 c3        1 MOL     -0.082810
    158 C53         4.1080   -5.0250    0.6810 c         1 MOL      0.594453
    159 O21         3.0590   -4.3480    0.4440 o         1 MOL     -0.683952
    160 O22         4.1250   -6.2390    0.9290 o         1 MOL     -0.683952
    161 H72         8.1420   -2.4570    0.2620 hn        1 MOL      0.391800
    162 H73         8.0420   -4.2790   -0.5280 h1        1 MOL      0.159614
    163 H74         5.7790   -5.2520   -1.3000 hc        1 MOL      0.023730
    164 H75         5.1350   -3.6350   -1.4300 hc        1 MOL      0.023730
    165 H76         5.4740   -3.4190    1.1060 hc        1 MOL      0.014321
    166 H77         6.1730   -5.1380    1.0780 hc        1 MOL      0.014321
    167 N15         7.9300   -2.7030   -3.1620 n         1 MOL     -0.272407
    168 C54         8.2330   -2.3950   -4.6420 c3        1 MOL     -0.301589
    169 H78         8.7470   -3.2440   -5.0910 h1        1 MOL      0.135435
    170 H79         7.3000   -2.2130   -5.1750 h1        1 MOL      0.135435
    171 H80         8.8680   -1.5110   -4.7070 h1        1 MOL      0.135435
    172 H81         7.8570   -1.8980   -2.5500 hn        1 MOL      0.246998
    173 Ca1         1.4290   -2.5630    1.4400 Ca        1 MOL      1.755235
    174 O23         3.1520   -1.4020   -0.2120 oh        1 MOL     -0.843913
    175 H82         3.9300   -1.5530   -0.7570 ho        1 MOL      0.421979
    176 H83         3.1420   -0.4640   -0.0520 ho        1 MOL      0.421979
    177 O24         1.8290   -4.4030    3.4010 oh        1 MOL     -0.843913
    178 H84         2.4820   -4.2130    4.0630 ho        1 MOL      0.421979
    179 H85         1.3340   -5.1430    3.7570 ho        1 MOL      0.421979
    180 O25         1.2120    0.1330    1.4000 oh        1 MOL     -0.843913
    181 H86         0.8250    0.3340    0.5440 ho        1 MOL      0.421979
    182 H87         0.8170    0.7620    1.9940 ho        1 MOL      0.421979
    183 O26         3.5700   -1.7100    2.7780 oh        1 MOL     -0.843913
    184 H88         4.4160   -1.8430    3.1900 ho        1 MOL      0.421979
    185 H89         3.3280   -0.8120    3.0010 ho        1 MOL      0.421979
    186 O27        -0.2620   -4.5240    0.3520 oh        1 MOL     -0.843913
    187 H90         0.0890   -5.3580    0.6530 ho        1 MOL      0.421979
    188 H91        -0.5850   -4.7010   -0.5320 ho        1 MOL      0.421979
@<TRIPOS>BOND
     1    1    2 1   
     2    1    4 1   
     3    1    5 1   
     4    1    6 1   
     5    2    3 2   
     6    2    7 1   
     7    7    8 1   
     8    7   15 1   
     9    8    9 1   
    10    8   11 1   
    11    8   16 1   
    12    9   10 2   
    13    9   19 1   
    14   11   12 1   
    15   11   17 1   
    16   11   18 1   
    17   12   13 1   
    18   12   14 1   
    19   19   20 1   
    20   19   28 1   
    21   20   21 1   
    22   20   23 1   
    23   20   29 1   
    24   21   22 2   
    25   21   41 1   
    26   23   24 1   
    27   23   30 1   
    28   23   31 1   
    29   24   25 1   
    30   24   32 1   
    31   24   33 1   
    32   25   26 1   
    33   25   34 1   
    34   25   35 1   
    35   26   27 1   
    36   26   36 1   
    37   26   37 1   
    38   27   38 1   
    39   27   39 1   
    40   27   40 1   
    41   41   42 1   
    42   41   49 1   
    43   42   43 1   
    44   42   45 1   
    45   42   50 1   
    46   43   44 2   
    47   43   53 1   
    48   45   46 1   
    49   45   51 1   
    50   45   52 1   
    51   46   47 1   
    52   46   48 1   
    53   53   54 1   
    54   53   57 1   
    55   54   55 1   
    56   54   58 1   
    57   54   59 1   
    58   55   56 2   
    59   55   60 1   
    60   60   61 1   
    61   60   68 1   
    62   61   62 1   
    63   61   64 1   
    64   61   69 1   
    65   62   63 2   
    66   62   74 1   
    67   64   65 1   
    68   64   70 1   
    69   64   71 1   
    70   65   66 1   
    71   65   67 2   
    72   66   72 1   
    73   66   73 1   
    74   74   75 1   
    75   74   78 1   
    76   75   76 1   
    77   75   79 1   
    78   75   80 1   
    79   76   77 2   
    80   76   81 1   
    81   81   82 1   
    82   81   93 1   
    83   82   83 1   
    84   82   85 1   
    85   82   94 1   
    86   83   84 2   
    87   83  102 1   
    88   85   86 1   
    89   85   95 1   
    90   85   96 1   
    91   86   87 ar  
    92   86   88 ar  
    93   87   89 ar  
    94   87   97 1   
    95   88   90 ar  
    96   88   98 1   
    97   89   91 ar  
    98   89   99 1   
    99   90   91 ar  
   100   90  100 1   
   101   91   92 1   
   102   92  101 1   
   103  102  103 1   
   104  102  110 1   
   105  103  104 1   
   106  103  106 1   
   107  103  111 1   
   108  104  105 2   
   109  104  121 1   
   110  106  107 1   
   111  106  108 1   
   112  106  112 1   
   113  107  109 1   
   114  107  113 1   
   115  107  114 1   
   116  108  115 1   
   117  108  116 1   
   118  108  117 1   
   119  109  118 1   
   120  109  119 1   
   121  109  120 1   
   122  121  122 1   
   123  121  127 1   
   124  122  123 1   
   125  122  125 1   
   126  122  128 1   
   127  123  124 2   
   128  123  132 1   
   129  125  126 1   
   130  125  129 1   
   131  125  130 1   
   132  126  131 1   
   133  132  133 1   
   134  132  137 1   
   135  133  134 1   
   136  133  136 1   
   137  133  138 1   
   138  134  135 2   
   139  134  142 1   
   140  136  139 1   
   141  136  140 1   
   142  136  141 1   
   143  142  143 1   
   144  142  147 1   
   145  143  144 1   
   146  143  146 1   
   147  143  148 1   
   148  144  145 2   
   149  144  152 1   
   150  146  149 1   
   151  146  150 1   
   152  146  151 1   
   153  152  153 1   
   154  152  161 1   
   155  153  154 1   
   156  153  156 1   
   157  153  162 1   
   158  154  155 2   
   159  154  167 1   
   160  156  157 1   
   161  156  163 1   
   162  156  164 1   
   163  157  158 1   
   164  157  165 1   
   165  157  166 1   
   166  158  159 1   
   167  158  160 1   
   168  167  168 1   
   169  167  172 1   
   170  168  169 1   
   171  168  170 1   
   172  168  171 1   
   173  174  175 1   
   174  174  176 1   
   175  177  178 1   
   176  177  179 1   
   177  180  181 1   
   178  180  182 1   
   179  183  184 1   
   180  183  185 1   
   181  186  187 1   
   182  186  188 1   
@<TRIPOS>SUBSTRUCTURE
     1 MOL         1 TEMP              0 ****  ****    0 ROOT
