@<TRIPOS>MOLECULE
MOL
  192   187     1     0     0
SMALL
resp


@<TRIPOS>ATOM
      1 C1          4.9510    5.1950   -2.1260 c3        1 MOL     -0.335411
      2 C2          5.5800    3.9590   -1.3820 c         1 MOL      0.863462
      3 O1          5.0680    3.4120   -0.4140 o         1 MOL     -0.723172
      4 H1          4.2090    5.6670   -1.4820 hc        1 MOL      0.078052
      5 H2          5.7350    5.9150   -2.3630 hc        1 MOL      0.078052
      6 H3          4.4720    4.8610   -3.0470 hc        1 MOL      0.078052
      7 N1          6.6810    3.4760   -1.9760 n         1 MOL     -0.690544
      8 C3          7.2630    2.1970   -1.7470 c3        1 MOL      0.185488
      9 C4          6.2940    0.9580   -1.6000 c         1 MOL      0.363303
     10 O2          5.9580    0.5200   -0.4890 o         1 MOL     -0.467692
     11 C5          8.2850    2.4120   -0.6620 c3        1 MOL     -0.065470
     12 C6          7.8240    3.1060    0.6540 c         1 MOL      0.792286
     13 O3          6.9520    2.6420    1.3800 o         1 MOL     -0.750189
     14 O4          8.4960    4.0980    0.8920 o         1 MOL     -0.750189
     15 H4          6.9050    3.9050   -2.8580 hn        1 MOL      0.322624
     16 H5          7.7940    2.0430   -2.6930 h1        1 MOL      0.011945
     17 H6          9.1170    2.9370   -1.1310 hc        1 MOL      0.005215
     18 H7          8.7440    1.4430   -0.4600 hc        1 MOL      0.005215
     19 N2          5.7890    0.6400   -2.7390 n         1 MOL     -0.412335
     20 C7          4.8110   -0.4230   -2.9690 c3        1 MOL      0.140850
     21 C8          5.4050   -1.8840   -2.7900 c         1 MOL      0.276120
     22 O5          4.9770   -2.7950   -3.5290 o         1 MOL     -0.520281
     23 C9          3.3970   -0.0780   -2.3770 c3        1 MOL      0.307030
     24 C10         2.3640   -1.2040   -2.3990 c3        1 MOL     -0.308092
     25 C11         2.8770    1.2060   -2.9860 c3        1 MOL     -0.082103
     26 C12         2.0310   -1.6870   -3.8690 c3        1 MOL     -0.564405
     27 H8          6.0490    1.1510   -3.5750 hn        1 MOL      0.277210
     28 H9          4.6370   -0.3510   -4.0420 h1        1 MOL      0.014612
     29 H10         3.5790    0.0110   -1.3030 hc        1 MOL     -0.132162
     30 H11         1.4710   -0.9210   -1.8320 hc        1 MOL      0.222726
     31 H12         2.7810   -2.0860   -1.9220 hc        1 MOL      0.222726
     32 H13         2.7600    1.9280   -2.1760 hc        1 MOL      0.004427
     33 H14         3.5780    1.7400   -3.6250 hc        1 MOL      0.004427
     34 H15         1.9440    0.9200   -3.4840 hc        1 MOL      0.004427
     35 H16         1.4430   -2.6090   -3.7770 hc        1 MOL      0.143860
     36 H17         1.3800   -0.9770   -4.3910 hc        1 MOL      0.143860
     37 H18         2.8600   -1.8890   -4.5410 hc        1 MOL      0.143860
     38 N3          6.2800   -2.1050   -1.7910 n         1 MOL     -0.044316
     39 C13         7.0110   -3.3460   -1.4320 c3        1 MOL      0.018314
     40 C14         6.2370   -4.6810   -1.3640 c         1 MOL      0.578732
     41 O6          6.7710   -5.7650   -1.7190 o         1 MOL     -0.569961
     42 C15         7.7320   -3.1090   -0.0230 c3        1 MOL     -0.315117
     43 C16         8.4720   -1.8060    0.2250 c         1 MOL      0.800327
     44 O7          8.5160   -1.2260    1.3090 o         1 MOL     -0.708219
     45 O8          9.1620   -1.2680   -0.7030 o         1 MOL     -0.708219
     46 H19         6.6170   -1.2280   -1.4320 hn        1 MOL      0.092294
     47 H20         7.9050   -3.3840   -2.0620 h1        1 MOL      0.043291
     48 H21         8.3700   -3.9820    0.0860 hc        1 MOL      0.079931
     49 H22         7.0680   -3.1710    0.8430 hc        1 MOL      0.079931
     50 N4          4.8740   -4.7600   -1.0560 n         1 MOL     -0.579130
     51 C17         4.1810   -3.8030   -0.2640 c3        1 MOL      0.131787
     52 C18         4.4360   -4.1120    1.2210 c         1 MOL      0.473080
     53 O9          5.2730   -4.9420    1.5390 o         1 MOL     -0.514735
     54 H23         4.3360   -5.5880   -1.2840 hn        1 MOL      0.336761
     55 H24         3.1260   -3.9540   -0.4840 h1        1 MOL      0.027252
     56 H25         4.5190   -2.7780   -0.4090 h1        1 MOL      0.027252
     57 N5          3.8150   -3.5160    2.2450 n         1 MOL     -0.449652
     58 C19         2.5660   -2.7770    2.2300 c3        1 MOL      0.236792
     59 C20         2.6280   -1.4440    1.4450 c         1 MOL      0.429293
     60 O10         3.6190   -0.8270    1.2760 o         1 MOL     -0.621081
     61 C21         2.2630   -2.5330    3.7220 c3        1 MOL     -0.590556
     62 C22         2.4020   -3.7390    4.7380 c         1 MOL      0.852775
     63 O11         1.5350   -4.5180    5.0820 o         1 MOL     -0.729140
     64 O12         3.5760   -3.9090    5.1470 o         1 MOL     -0.729140
     65 H26         4.1830   -3.8150    3.1390 hn        1 MOL      0.267346
     66 H27         1.8110   -3.4060    1.7630 h1        1 MOL      0.036198
     67 H28         1.3310   -1.9740    3.7110 hc        1 MOL      0.117162
     68 H29         3.0620   -1.8320    3.9750 hc        1 MOL      0.117162
     69 N6          1.5260   -0.9200    1.0020 n         1 MOL      0.120951
     70 C23         0.1680   -1.3680    1.1320 c3        1 MOL     -0.170813
     71 C24        -0.3090   -2.5120    0.2810 c         1 MOL      0.431651
     72 O13         0.4000   -3.2280   -0.4310 o         1 MOL     -0.517596
     73 H30         1.5670   -0.1270    0.3680 hn        1 MOL     -0.022338
     74 H31        -0.5520   -0.5520    1.0530 h1        1 MOL      0.066596
     75 H32         0.0450   -1.6300    2.1810 h1        1 MOL      0.066596
     76 N7         -1.5990   -2.7370    0.3480 n         1 MOL     -0.304238
     77 C25        -2.4310   -3.7240   -0.2210 c3        1 MOL     -0.022880
     78 C26        -3.0770   -3.6190   -1.6130 c         1 MOL      0.368487
     79 O14        -3.4850   -4.5150   -2.2910 o         1 MOL     -0.511221
     80 C27        -3.4080   -4.0340    0.8940 c3        1 MOL      0.035650
     81 C28        -4.4520   -2.9920    1.3260 c3        1 MOL     -0.349828
     82 C29        -5.6930   -3.6220    1.8830 c         1 MOL      0.741496
     83 N8         -5.6480   -3.8230    3.2000 n         1 MOL     -0.815416
     84 O15        -6.6170   -3.9760    1.2420 o         1 MOL     -0.534902
     85 H33        -2.1570   -2.0840    0.8820 hn        1 MOL      0.241254
     86 H34        -1.8500   -4.6450   -0.2340 h1        1 MOL      0.119425
     87 H35        -2.8580   -4.3460    1.7760 hc        1 MOL      0.040481
     88 H36        -3.8570   -5.0060    0.6690 hc        1 MOL      0.040481
     89 H37        -4.6900   -2.4130    0.4230 hc        1 MOL      0.100470
     90 H38        -4.0680   -2.3120    2.0740 hc        1 MOL      0.100470
     91 H39        -4.8950   -3.3910    3.7160 hn        1 MOL      0.376342
     92 H40        -6.4620   -4.0610    3.7560 hn        1 MOL      0.376342
     93 N9         -3.2780   -2.3870   -2.0220 n         1 MOL     -0.010685
     94 C30        -3.7230   -1.9430   -3.3780 c3        1 MOL     -0.365320
     95 C31        -5.0390   -1.2130   -3.4030 c         1 MOL      0.593965
     96 O16        -5.5740   -1.1050   -4.5430 o         1 MOL     -0.543574
     97 C32        -2.6470   -1.1890   -4.1990 c3        1 MOL      0.035019
     98 C33        -1.4820   -2.2040   -4.2550 c3        1 MOL     -0.123872
     99 C34        -2.1660    0.0430   -3.4210 c3        1 MOL     -0.123872
    100 H41        -2.9710   -1.5860   -1.4860 hn        1 MOL      0.164419
    101 H42        -3.9260   -2.8700   -3.9090 h1        1 MOL      0.201373
    102 H43        -2.8920   -0.8830   -5.2140 hc        1 MOL      0.081162
    103 H44        -0.8500   -1.8300   -5.0670 hc        1 MOL      0.034394
    104 H45        -0.8920   -2.2380   -3.3390 hc        1 MOL      0.034394
    105 H46        -1.7410   -3.2370   -4.4980 hc        1 MOL      0.034394
    106 H47        -1.1880    0.3530   -3.7750 hc        1 MOL      0.034394
    107 H48        -2.7840    0.9400   -3.5000 hc        1 MOL      0.034394
    108 H49        -1.9510   -0.1070   -2.3630 hc        1 MOL      0.034394
    109 N10        -5.6460   -1.0010   -2.2510 n         1 MOL     -0.310901
    110 C35        -6.9600   -0.4370   -2.1830 c3        1 MOL      0.044375
    111 C36        -7.1340    0.9040   -1.4760 c         1 MOL      0.549812
    112 O17        -8.0610    1.7450   -1.6950 o         1 MOL     -0.547663
    113 C37        -7.8830   -1.5590   -1.5920 c3        1 MOL     -0.105241
    114 C38        -7.8390   -2.9460   -2.1550 c         1 MOL      0.595506
    115 N11        -7.3540   -3.8790   -1.4180 n         1 MOL     -0.764734
    116 O18        -8.3290   -3.2280   -3.2430 o         1 MOL     -0.592633
    117 H50        -5.1180   -1.1300   -1.4030 hn        1 MOL      0.130096
    118 H51        -7.3020   -0.2330   -3.1880 h1        1 MOL      0.062578
    119 H52        -8.9210   -1.2400   -1.6620 hc        1 MOL      0.064292
    120 H53        -7.5660   -1.7060   -0.5490 hc        1 MOL      0.064292
    121 H54        -7.0600   -3.7000   -0.4710 hn        1 MOL      0.363350
    122 H55        -7.2200   -4.7500   -1.9290 hn        1 MOL      0.363350
    123 N12        -6.2180    1.1250   -0.5150 n         1 MOL     -0.727000
    124 C39        -6.2580    2.3470    0.2640 c3        1 MOL      0.723769
    125 C40        -4.8210    2.8640    0.4150 c         1 MOL      0.166576
    126 O19        -3.8550    2.1690    0.0080 o         1 MOL     -0.469799
    127 C41        -6.8660    2.0890    1.6040 c3        1 MOL     -0.253668
    128 C42        -8.0110    1.0640    1.5600 ca        1 MOL      0.014552
    129 C43        -9.2700    1.4860    1.1360 ca        1 MOL     -0.129482
    130 C44        -7.7990   -0.2560    2.0910 ca        1 MOL     -0.129482
    131 C45       -10.3390    0.5400    1.0530 ca        1 MOL     -0.263658
    132 C46        -8.8710   -1.1650    2.0810 ca        1 MOL     -0.263658
    133 C47       -10.0910   -0.7370    1.6150 ca        1 MOL      0.328357
    134 O20       -11.1250   -1.6320    1.6410 oh        1 MOL     -0.519086
    135 H56        -5.5020    0.4590   -0.2500 hn        1 MOL      0.358332
    136 H57        -6.8410    3.1410   -0.2090 h1        1 MOL     -0.058441
    137 H58        -7.1780    3.0500    1.9970 hc        1 MOL      0.088188
    138 H59        -6.0940    1.6890    2.2570 hc        1 MOL      0.088188
    139 H60        -9.3330    2.5470    0.9450 ha        1 MOL      0.123077
    140 H61        -6.8190   -0.5180    2.4500 ha        1 MOL      0.123077
    141 H62       -11.3370    0.7640    0.7030 ha        1 MOL      0.143618
    142 H63        -8.8040   -2.1290    2.5680 ha        1 MOL      0.143618
    143 H64       -11.9130   -1.2770    1.2220 ho        1 MOL      0.371336
    144 N13        -4.5840    3.9560    1.0720 n         1 MOL     -0.526279
    145 C48        -3.3980    4.5080    1.5960 c3        1 MOL      0.318812
    146 C49        -2.2930    4.8410    0.5520 c         1 MOL      0.017686
    147 O21        -1.6540    5.9100    0.6940 o         1 MOL     -0.513642
    148 C50        -2.7680    3.5680    2.7100 c3        1 MOL     -0.039177
    149 C51        -3.8080    3.2670    3.8040 c3        1 MOL     -0.246654
    150 C52        -3.0970    2.5470    4.8900 c         1 MOL      0.686472
    151 O22        -2.6370    1.3960    4.6670 o         1 MOL     -0.722949
    152 O23        -3.1060    3.0280    6.0870 o         1 MOL     -0.722949
    153 H65        -5.4030    4.5270    1.2090 hn        1 MOL      0.292652
    154 H66        -3.6870    5.4120    2.1320 h1        1 MOL      0.032250
    155 H67        -1.9530    4.1990    3.0740 hc        1 MOL      0.078968
    156 H68        -2.3990    2.6670    2.2400 hc        1 MOL      0.078968
    157 H69        -4.5950    2.6430    3.3980 hc        1 MOL      0.019705
    158 H70        -4.2450    4.2070    4.1390 hc        1 MOL      0.019705
    159 N14        -1.9160    4.0450   -0.4520 n         1 MOL      0.297308
    160 C53        -0.7360    4.2570   -1.3920 c3        1 MOL     -0.264940
    161 C54        -1.0150    5.1400   -2.5870 c         1 MOL      0.493652
    162 O24        -0.1000    5.7790   -3.0220 o         1 MOL     -0.526977
    163 C55        -0.0560    2.8870   -1.7650 c3        1 MOL      0.196700
    164 C56         0.1010    1.8650   -0.6220 c3        1 MOL      0.282653
    165 C57         0.9440    2.2970    0.6120 c         1 MOL      0.502291
    166 O25         0.4250    3.0460    1.4780 o         1 MOL     -0.635398
    167 O26         2.1250    1.9260    0.6910 o         1 MOL     -0.635398
    168 H71        -2.4710    3.2070   -0.5300 hn        1 MOL      0.074490
    169 H72        -0.1190    4.8680   -0.7260 h1        1 MOL      0.161650
    170 H73         0.8770    3.0500   -2.3040 hc        1 MOL     -0.080669
    171 H74        -0.8110    2.4750   -2.4360 hc        1 MOL     -0.080669
    172 H75         0.4110    0.9130   -1.0450 hc        1 MOL     -0.122816
    173 H76        -0.8790    1.6440   -0.1970 hc        1 MOL     -0.122816
    174 N15        -2.2870    5.2860   -2.8960 n         1 MOL     -0.251022
    175 C58        -2.8750    6.3240   -3.6640 c3        1 MOL     -0.164477
    176 H77        -3.6050    6.8560   -3.0550 h1        1 MOL      0.077333
    177 H78        -2.1010    7.0170   -3.9910 h1        1 MOL      0.077333
    178 H79        -3.3720    5.8960   -4.5350 h1        1 MOL      0.077333
    179 H80        -2.9640    4.7080   -2.4060 hn        1 MOL      0.200312
    180 Ca1         4.5850    1.6500    1.5450 Ca        1 MOL      1.832801
    181 O27         5.3620    2.1510    4.1780 oh        1 MOL     -0.845293
    182 H81         4.9760    2.4420    5.0070 ho        1 MOL      0.409674
    183 H82         6.3050    2.2750    4.2890 ho        1 MOL      0.409674
    184 O28         3.6330    3.9600    2.4310 oh        1 MOL     -0.845293
    185 H83         2.8660    4.0450    1.8660 ho        1 MOL      0.409674
    186 H84         3.4160    4.4490    3.2230 ho        1 MOL      0.409674
    187 O29         6.2980   -0.4910    2.4730 oh        1 MOL     -0.845293
    188 H85         6.1610   -1.2070    3.0930 ho        1 MOL      0.409674
    189 H86         6.9930   -0.8150    1.8920 ho        1 MOL      0.409674
    190 O30         2.6430    1.0970    3.3630 oh        1 MOL     -0.845293
    191 H87         1.7310    1.3000    3.1840 ho        1 MOL      0.409674
    192 H88         2.6770    0.9340    4.3060 ho        1 MOL      0.409674
@<TRIPOS>BOND
     1    1    2 1   
     2    1    4 1   
     3    1    5 1   
     4    1    6 1   
     5    2    3 2   
     6    2    7 1   
     7    7    8 1   
     8    7   15 1   
     9    8    9 1   
    10    8   11 1   
    11    8   16 1   
    12    9   10 2   
    13    9   19 1   
    14   11   12 1   
    15   11   17 1   
    16   11   18 1   
    17   12   13 1   
    18   12   14 1   
    19   19   20 1   
    20   19   27 1   
    21   20   21 1   
    22   20   23 1   
    23   20   28 1   
    24   21   22 2   
    25   21   38 1   
    26   23   24 1   
    27   23   25 1   
    28   23   29 1   
    29   24   26 1   
    30   24   30 1   
    31   24   31 1   
    32   25   32 1   
    33   25   33 1   
    34   25   34 1   
    35   26   35 1   
    36   26   36 1   
    37   26   37 1   
    38   38   39 1   
    39   38   46 1   
    40   39   40 1   
    41   39   42 1   
    42   39   47 1   
    43   40   41 2   
    44   40   50 1   
    45   42   43 1   
    46   42   48 1   
    47   42   49 1   
    48   43   44 1   
    49   43   45 1   
    50   50   51 1   
    51   50   54 1   
    52   51   52 1   
    53   51   55 1   
    54   51   56 1   
    55   52   53 2   
    56   52   57 1   
    57   57   58 1   
    58   57   65 1   
    59   58   59 1   
    60   58   61 1   
    61   58   66 1   
    62   59   60 2   
    63   59   69 1   
    64   61   62 1   
    65   61   67 1   
    66   61   68 1   
    67   62   63 1   
    68   62   64 1   
    69   69   70 1   
    70   69   73 1   
    71   70   71 1   
    72   70   74 1   
    73   70   75 1   
    74   71   72 2   
    75   71   76 1   
    76   76   77 1   
    77   76   85 1   
    78   77   78 1   
    79   77   80 1   
    80   77   86 1   
    81   78   79 2   
    82   78   93 1   
    83   80   81 1   
    84   80   87 1   
    85   80   88 1   
    86   81   82 1   
    87   81   89 1   
    88   81   90 1   
    89   82   83 1   
    90   82   84 2   
    91   83   91 1   
    92   83   92 1   
    93   93   94 1   
    94   93  100 1   
    95   94   95 1   
    96   94   97 1   
    97   94  101 1   
    98   95   96 2   
    99   95  109 1   
   100   97   98 1   
   101   97   99 1   
   102   97  102 1   
   103   98  103 1   
   104   98  104 1   
   105   98  105 1   
   106   99  106 1   
   107   99  107 1   
   108   99  108 1   
   109  109  110 1   
   110  109  117 1   
   111  110  111 1   
   112  110  113 1   
   113  110  118 1   
   114  111  112 2   
   115  111  123 1   
   116  113  114 1   
   117  113  119 1   
   118  113  120 1   
   119  114  115 1   
   120  114  116 2   
   121  115  121 1   
   122  115  122 1   
   123  123  124 1   
   124  123  135 1   
   125  124  125 1   
   126  124  127 1   
   127  124  136 1   
   128  125  126 2   
   129  125  144 1   
   130  127  128 1   
   131  127  137 1   
   132  127  138 1   
   133  128  129 ar  
   134  128  130 ar  
   135  129  131 ar  
   136  129  139 1   
   137  130  132 ar  
   138  130  140 1   
   139  131  133 ar  
   140  131  141 1   
   141  132  133 ar  
   142  132  142 1   
   143  133  134 1   
   144  134  143 1   
   145  144  145 1   
   146  144  153 1   
   147  145  146 1   
   148  145  148 1   
   149  145  154 1   
   150  146  147 2   
   151  146  159 1   
   152  148  149 1   
   153  148  155 1   
   154  148  156 1   
   155  149  150 1   
   156  149  157 1   
   157  149  158 1   
   158  150  151 1   
   159  150  152 1   
   160  159  160 1   
   161  159  168 1   
   162  160  161 1   
   163  160  163 1   
   164  160  169 1   
   165  161  162 2   
   166  161  174 1   
   167  163  164 1   
   168  163  170 1   
   169  163  171 1   
   170  164  165 1   
   171  164  172 1   
   172  164  173 1   
   173  165  166 1   
   174  165  167 1   
   175  174  175 1   
   176  174  179 1   
   177  175  176 1   
   178  175  177 1   
   179  175  178 1   
   180  181  182 1   
   181  181  183 1   
   182  184  185 1   
   183  184  186 1   
   184  187  188 1   
   185  187  189 1   
   186  190  191 1   
   187  190  192 1   
@<TRIPOS>SUBSTRUCTURE
     1 MOL         1 TEMP              0 ****  ****    0 ROOT
