@<TRIPOS>MOLECULE
MOL
  192   187     1     0     0
SMALL
resp


@<TRIPOS>ATOM
      1 C1          4.4700   -1.9540   -2.3520 c3        1 MOL     -0.252595
      2 C2          3.5590   -2.6630   -1.3140 c         1 MOL      0.611212
      3 O1          2.5630   -2.0100   -0.9320 o         1 MOL     -0.506589
      4 H1          4.2260   -2.3120   -3.3520 hc        1 MOL      0.054303
      5 H2          4.3090   -0.8780   -2.3030 hc        1 MOL      0.054303
      6 H3          5.5140   -2.1770   -2.1330 hc        1 MOL      0.054303
      7 N1          3.8630   -3.9070   -0.8830 n         1 MOL     -0.417986
      8 C3          3.2960   -4.8420    0.0590 c3        1 MOL      0.056801
      9 C4          1.7780   -4.9660   -0.0950 c         1 MOL      0.644577
     10 O2          1.0780   -4.8360    0.9360 o         1 MOL     -0.521425
     11 C5          3.8090   -4.4730    1.5100 c3        1 MOL     -0.436813
     12 C6          5.2580   -4.2980    1.6310 c         1 MOL      1.003869
     13 O3          5.7840   -3.7850    2.6040 o         1 MOL     -0.790918
     14 O4          6.0290   -4.7740    0.8050 o         1 MOL     -0.790918
     15 H4          4.6630   -4.3120   -1.3480 hn        1 MOL      0.220880
     16 H5          3.7470   -5.8230   -0.1310 h1        1 MOL      0.057611
     17 H6          3.5490   -5.1900    2.2840 hc        1 MOL      0.121622
     18 H7          3.2770   -3.5920    1.8510 hc        1 MOL      0.121622
     19 N2          1.2570   -4.9540   -1.3240 n         1 MOL     -0.625567
     20 C7         -0.1190   -5.0130   -1.6990 c3        1 MOL     -0.084251
     21 C8         -0.7440   -6.3190   -1.1860 c         1 MOL      0.506246
     22 O5         -0.1870   -7.4560   -1.1870 o         1 MOL     -0.596143
     23 C9         -0.4240   -4.9340   -3.2610 c3        1 MOL      0.053433
     24 C10         0.2820   -6.0820   -4.1120 c3        1 MOL      0.261909
     25 C11         0.0980   -3.5610   -3.8000 c3        1 MOL     -0.173191
     26 C12        -0.0980   -6.0780   -5.6240 c3        1 MOL     -0.636014
     27 H8          1.9420   -4.9020   -2.0650 hn        1 MOL      0.306125
     28 H9         -0.5600   -4.1380   -1.2190 h1        1 MOL      0.225534
     29 H10        -1.4900   -4.9850   -3.4760 hc        1 MOL      0.077962
     30 H11         0.0270   -7.0570   -3.6970 hc        1 MOL     -0.028428
     31 H12         1.3500   -6.1640   -3.9000 hc        1 MOL     -0.028428
     32 H13         1.1810   -3.5000   -3.8490 hc        1 MOL      0.040069
     33 H14        -0.3780   -3.2430   -4.7200 hc        1 MOL      0.040069
     34 H15        -0.2020   -2.7540   -3.1400 hc        1 MOL      0.040069
     35 H16        -1.1450   -6.3860   -5.7330 hc        1 MOL      0.151582
     36 H17        -0.0130   -5.0840   -6.0520 hc        1 MOL      0.151582
     37 H18         0.5090   -6.8470   -6.0920 hc        1 MOL      0.151582
     38 N3         -1.9850   -6.3860   -0.7690 n         1 MOL     -0.394160
     39 C13        -2.8380   -5.2670   -0.3880 c3        1 MOL      0.040442
     40 C14        -4.0480   -5.8690    0.4350 c         1 MOL      0.368340
     41 O6         -4.4930   -7.0420    0.2050 o         1 MOL     -0.482479
     42 C15        -3.4870   -4.5120   -1.5170 c3        1 MOL      0.073919
     43 C16        -4.2170   -5.2180   -2.6850 c         1 MOL      0.740689
     44 O7         -4.7870   -4.5590   -3.5720 o         1 MOL     -0.717934
     45 O8         -4.1820   -6.4250   -2.7620 o         1 MOL     -0.717934
     46 H19        -2.3760   -7.3140   -0.7790 hn        1 MOL      0.306045
     47 H20        -2.2720   -4.5320    0.1910 h1        1 MOL      0.026024
     48 H21        -2.7840   -3.8040   -1.9410 hc        1 MOL     -0.081467
     49 H22        -4.2670   -3.8850   -1.0790 hc        1 MOL     -0.081467
     50 N4         -4.6510   -5.0880    1.3280 n         1 MOL     -0.240260
     51 C17        -5.7790   -5.4520    2.1590 c3        1 MOL      0.022582
     52 C18        -6.4030   -4.2990    2.8920 c         1 MOL      0.467155
     53 O9         -6.5010   -4.3400    4.1420 o         1 MOL     -0.520042
     54 H23        -4.4380   -4.0990    1.3320 hn        1 MOL      0.251961
     55 H24        -5.4160   -6.1130    2.9500 h1        1 MOL      0.029365
     56 H25        -6.5330   -6.0200    1.6150 h1        1 MOL      0.029365
     57 N5         -6.5860   -3.1760    2.1640 n         1 MOL     -0.412281
     58 C19        -7.0540   -1.8930    2.7710 c3        1 MOL      0.025712
     59 C20        -7.8580   -0.9830    1.7600 c         1 MOL      0.514515
     60 O10        -8.8180   -0.3600    2.0950 o         1 MOL     -0.537700
     61 C21        -5.8620   -1.1010    3.2920 c3        1 MOL     -0.388236
     62 C22        -4.8510   -0.7860    2.2100 c         1 MOL      0.797174
     63 O11        -3.9940   -1.6780    1.9430 o         1 MOL     -0.727932
     64 O12        -4.9250    0.2330    1.5120 o         1 MOL     -0.727932
     65 H26        -6.5890   -3.2180    1.1580 hn        1 MOL      0.244058
     66 H27        -7.7330   -2.1610    3.5850 h1        1 MOL      0.083014
     67 H28        -5.3860   -1.6420    4.1140 hc        1 MOL      0.110436
     68 H29        -6.1590   -0.0890    3.5640 hc        1 MOL      0.110436
     69 N6         -7.6370   -1.0640    0.4310 n         1 MOL     -0.377316
     70 C23        -8.4940   -0.3360   -0.5490 c3        1 MOL     -0.132877
     71 C24        -8.4670    1.1410   -0.4030 c         1 MOL      0.510796
     72 O13        -9.0640    1.8190   -1.2020 o         1 MOL     -0.572323
     73 H30        -6.9320   -1.7100    0.1120 hn        1 MOL      0.295283
     74 H31        -9.4350   -0.8790   -0.4940 h1        1 MOL      0.106759
     75 H32        -8.0830   -0.5910   -1.5220 h1        1 MOL      0.106759
     76 N7         -7.6460    1.7580    0.4830 n         1 MOL     -0.111103
     77 C25        -7.3240    3.2020    0.7390 c3        1 MOL     -0.022824
     78 C26        -6.7530    3.8790   -0.5380 c         1 MOL      0.455116
     79 O14        -6.9420    5.0900   -0.7590 o         1 MOL     -0.501848
     80 C27        -8.5570    3.9170    1.3540 c3        1 MOL     -0.121941
     81 C28        -9.0090    3.4770    2.7930 c3        1 MOL     -0.142247
     82 C29        -8.0250    4.0690    3.8760 c         1 MOL      0.574938
     83 N8         -8.0310    3.6230    5.1100 n         1 MOL     -0.745094
     84 O15        -7.2130    4.9390    3.6580 o         1 MOL     -0.501444
     85 H33        -7.0710    1.1970    1.0890 hn        1 MOL      0.165998
     86 H34        -6.4980    3.2020    1.4530 h1        1 MOL      0.124634
     87 H35        -9.4420    3.8430    0.7260 hc        1 MOL      0.067372
     88 H36        -8.2010    4.9190    1.5780 hc        1 MOL      0.067372
     89 H37        -9.0530    2.4020    2.9690 hc        1 MOL      0.039136
     90 H38        -9.9840    3.8920    3.0490 hc        1 MOL      0.039136
     91 H39        -8.8480    3.0920    5.3970 hn        1 MOL      0.335666
     92 H40        -7.3450    3.9790    5.7510 hn        1 MOL      0.335666
     93 N9         -5.9560    3.1790   -1.3550 n         1 MOL     -0.352610
     94 C30        -5.4180    3.7230   -2.5730 c3        1 MOL     -0.169764
     95 C31        -3.8750    3.6150   -2.6800 c         1 MOL      0.745297
     96 O16        -3.3310    4.4670   -3.3860 o         1 MOL     -0.608451
     97 C32        -6.2580    3.2150   -3.7550 c3        1 MOL      0.366592
     98 C33        -6.2980    1.6890   -4.0530 c3        1 MOL     -0.399957
     99 C34        -7.6800    3.7640   -3.8490 c3        1 MOL     -0.399957
    100 H41        -5.7900    2.2010   -1.1640 hn        1 MOL      0.209486
    101 H42        -5.5760    4.7970   -2.5880 h1        1 MOL      0.119779
    102 H43        -5.7340    3.5940   -4.6420 hc        1 MOL     -0.063006
    103 H44        -6.9160    1.5740   -4.9480 hc        1 MOL      0.094107
    104 H45        -5.2880    1.4000   -4.3310 hc        1 MOL      0.094107
    105 H46        -6.7490    1.1790   -3.2070 hc        1 MOL      0.094107
    106 H47        -8.3800    3.3170   -3.1470 hc        1 MOL      0.094107
    107 H48        -7.6420    4.8370   -3.6620 hc        1 MOL      0.094107
    108 H49        -8.1140    3.5720   -4.8290 hc        1 MOL      0.094107
    109 N10        -3.2180    2.7440   -1.9510 n         1 MOL     -0.591338
    110 C35        -1.7890    2.4070   -2.0230 c3        1 MOL      0.128301
    111 C36        -0.9690    2.9230   -0.7770 c         1 MOL      0.696826
    112 O17        -1.5490    3.1980    0.2720 o         1 MOL     -0.547444
    113 C37        -1.6400    0.8420   -2.2260 c3        1 MOL     -0.239268
    114 C38        -0.2390    0.3900   -2.2790 c         1 MOL      0.640189
    115 N11         0.1160   -0.5250   -1.3990 n         1 MOL     -0.703287
    116 O18         0.5940    0.9190   -2.9740 o         1 MOL     -0.604122
    117 H50        -3.7790    2.0770   -1.4380 hn        1 MOL      0.317522
    118 H51        -1.3650    2.8710   -2.9040 h1        1 MOL      0.065959
    119 H52        -2.0690    0.3010   -3.0630 hc        1 MOL      0.089805
    120 H53        -2.1670    0.2610   -1.4570 hc        1 MOL      0.089805
    121 H54        -0.5450   -0.9630   -0.7800 hn        1 MOL      0.339059
    122 H55         1.0970   -0.7740   -1.3920 hn        1 MOL      0.339059
    123 N12         0.3510    2.8140   -0.9290 n         1 MOL     -0.792926
    124 C39         1.2820    3.1900    0.1350 c3        1 MOL      0.421506
    125 C40         2.6250    3.7700   -0.4350 c         1 MOL      0.547737
    126 O19         3.0790    3.2900   -1.4500 o         1 MOL     -0.564063
    127 C41         1.6420    2.0330    1.0030 c3        1 MOL     -0.019093
    128 C42         2.0860    2.3110    2.4130 ca        1 MOL      0.026363
    129 C43         3.4790    2.2120    2.7600 ca        1 MOL     -0.197880
    130 C44         1.0840    2.6920    3.3990 ca        1 MOL     -0.197880
    131 C45         3.8800    2.4430    4.0980 ca        1 MOL     -0.200284
    132 C46         1.5420    2.7700    4.7270 ca        1 MOL     -0.200284
    133 C47         2.9130    2.6760    5.0490 ca        1 MOL      0.292608
    134 O20         3.2500    2.7950    6.3420 oh        1 MOL     -0.524765
    135 H56         0.7750    2.3570   -1.7160 hn        1 MOL      0.381452
    136 H57         0.7800    3.8820    0.8170 h1        1 MOL     -0.027993
    137 H58         2.4220    1.4360    0.5240 hc        1 MOL      0.041922
    138 H59         0.7620    1.4290    1.2090 hc        1 MOL      0.041922
    139 H60         4.2650    1.9760    2.0610 ha        1 MOL      0.177166
    140 H61         0.0450    2.8500    3.1310 ha        1 MOL      0.177166
    141 H62         4.8970    2.2840    4.4010 ha        1 MOL      0.127929
    142 H63         0.8750    2.9190    5.5590 ha        1 MOL      0.127929
    143 H64         4.1830    3.0380    6.4240 ho        1 MOL      0.365408
    144 N13         3.3010    4.6830    0.2930 n         1 MOL     -0.883605
    145 C48         4.6040    5.2310   -0.0750 c3        1 MOL      0.883085
    146 C49         5.6720    4.5490    0.7650 c         1 MOL      0.280504
    147 O21         5.7100    4.7950    1.9900 o         1 MOL     -0.580387
    148 C50         4.5630    6.6900    0.0680 c3        1 MOL     -0.297388
    149 C51         3.6050    7.3180   -0.9920 c3        1 MOL     -0.057287
    150 C52         3.7820    8.8400   -1.0540 c         1 MOL      0.688638
    151 O22         3.2650    9.5990   -0.2220 o         1 MOL     -0.697006
    152 O23         4.1930    9.3160   -2.1680 o         1 MOL     -0.697006
    153 H65         2.8510    5.0180    1.1360 hn        1 MOL      0.363985
    154 H66         4.8010    5.0260   -1.1320 h1        1 MOL     -0.077259
    155 H67         5.5250    7.0870   -0.2370 hc        1 MOL      0.045900
    156 H68         4.2530    7.0110    1.0700 hc        1 MOL      0.045900
    157 H69         2.5480    7.1480   -0.7700 hc        1 MOL      0.010199
    158 H70         3.8710    6.9130   -1.9640 hc        1 MOL      0.010199
    159 N14         6.4710    3.6300    0.2460 n         1 MOL     -0.358462
    160 C53         6.4960    3.0330   -1.0740 c3        1 MOL     -0.128179
    161 C54         7.0470    4.0130   -2.1270 c         1 MOL      0.487575
    162 O24         7.7870    4.9010   -1.7550 o         1 MOL     -0.507913
    163 C55         7.2680    1.7190   -1.0310 c3        1 MOL      0.003591
    164 C56         6.4650    0.7450   -0.1420 c3        1 MOL     -0.102395
    165 C57         7.0940   -0.6070    0.2570 c         1 MOL      0.866495
    166 O25         8.2470   -0.7480    0.5350 o         1 MOL     -0.839005
    167 O26         6.2720   -1.5370    0.4870 o         1 MOL     -0.839005
    168 H71         7.0270    3.1010    0.9130 hn        1 MOL      0.303867
    169 H72         5.5070    2.7640   -1.4330 h1        1 MOL      0.127436
    170 H73         8.2320    1.9240   -0.5710 hc        1 MOL      0.003167
    171 H74         7.3260    1.3360   -2.0540 hc        1 MOL      0.003167
    172 H75         5.5010    0.5550   -0.6350 hc        1 MOL      0.036237
    173 H76         6.2990    1.2230    0.8230 hc        1 MOL      0.036237
    174 N15         6.5070    3.8570   -3.3740 n         1 MOL     -0.333905
    175 C58         6.9080    4.6970   -4.5410 c3        1 MOL     -0.124760
    176 H77         7.2870    4.0550   -5.3370 h1        1 MOL      0.076971
    177 H78         6.0420    5.2530   -4.9030 h1        1 MOL      0.076971
    178 H79         7.6870    5.3960   -4.2360 h1        1 MOL      0.076971
    179 H80         5.7700    3.1820   -3.4830 hn        1 MOL      0.273755
    180 Ca1         8.2050   -3.2030    1.3230 Ca        1 MOL      1.735545
    181 O27        10.6470   -3.6000    2.1790 oh        1 MOL     -0.848236
    182 H81        11.2670   -2.9030    1.9840 ho        1 MOL      0.389754
    183 H82        10.9190   -3.9410    3.0230 ho        1 MOL      0.389754
    184 O28        10.1380   -2.5600   -0.4950 oh        1 MOL     -0.848236
    185 H83        10.7880   -1.9090   -0.2270 ho        1 MOL      0.389754
    186 H84        10.4930   -2.9410   -1.2950 ho        1 MOL      0.389754
    187 O29         8.1050   -5.7540    2.6020 oh        1 MOL     -0.848236
    188 H85         8.4430   -5.8800    3.4870 ho        1 MOL      0.389754
    189 H86         7.1600   -5.7450    2.7080 ho        1 MOL      0.389754
    190 O30         7.9710   -2.3280    3.7400 oh        1 MOL     -0.848236
    191 H87         8.5860   -1.8440    4.2840 ho        1 MOL      0.389754
    192 H88         7.1310   -2.2430    4.1870 ho        1 MOL      0.389754
@<TRIPOS>BOND
     1    1    2 1   
     2    1    4 1   
     3    1    5 1   
     4    1    6 1   
     5    2    3 2   
     6    2    7 1   
     7    7    8 1   
     8    7   15 1   
     9    8    9 1   
    10    8   11 1   
    11    8   16 1   
    12    9   10 2   
    13    9   19 1   
    14   11   12 1   
    15   11   17 1   
    16   11   18 1   
    17   12   13 1   
    18   12   14 1   
    19   19   20 1   
    20   19   27 1   
    21   20   21 1   
    22   20   23 1   
    23   20   28 1   
    24   21   22 2   
    25   21   38 1   
    26   23   24 1   
    27   23   25 1   
    28   23   29 1   
    29   24   26 1   
    30   24   30 1   
    31   24   31 1   
    32   25   32 1   
    33   25   33 1   
    34   25   34 1   
    35   26   35 1   
    36   26   36 1   
    37   26   37 1   
    38   38   39 1   
    39   38   46 1   
    40   39   40 1   
    41   39   42 1   
    42   39   47 1   
    43   40   41 2   
    44   40   50 1   
    45   42   43 1   
    46   42   48 1   
    47   42   49 1   
    48   43   44 1   
    49   43   45 1   
    50   50   51 1   
    51   50   54 1   
    52   51   52 1   
    53   51   55 1   
    54   51   56 1   
    55   52   53 2   
    56   52   57 1   
    57   57   58 1   
    58   57   65 1   
    59   58   59 1   
    60   58   61 1   
    61   58   66 1   
    62   59   60 2   
    63   59   69 1   
    64   61   62 1   
    65   61   67 1   
    66   61   68 1   
    67   62   63 1   
    68   62   64 1   
    69   69   70 1   
    70   69   73 1   
    71   70   71 1   
    72   70   74 1   
    73   70   75 1   
    74   71   72 2   
    75   71   76 1   
    76   76   77 1   
    77   76   85 1   
    78   77   78 1   
    79   77   80 1   
    80   77   86 1   
    81   78   79 2   
    82   78   93 1   
    83   80   81 1   
    84   80   87 1   
    85   80   88 1   
    86   81   82 1   
    87   81   89 1   
    88   81   90 1   
    89   82   83 1   
    90   82   84 2   
    91   83   91 1   
    92   83   92 1   
    93   93   94 1   
    94   93  100 1   
    95   94   95 1   
    96   94   97 1   
    97   94  101 1   
    98   95   96 2   
    99   95  109 1   
   100   97   98 1   
   101   97   99 1   
   102   97  102 1   
   103   98  103 1   
   104   98  104 1   
   105   98  105 1   
   106   99  106 1   
   107   99  107 1   
   108   99  108 1   
   109  109  110 1   
   110  109  117 1   
   111  110  111 1   
   112  110  113 1   
   113  110  118 1   
   114  111  112 2   
   115  111  123 1   
   116  113  114 1   
   117  113  119 1   
   118  113  120 1   
   119  114  115 1   
   120  114  116 2   
   121  115  121 1   
   122  115  122 1   
   123  123  124 1   
   124  123  135 1   
   125  124  125 1   
   126  124  127 1   
   127  124  136 1   
   128  125  126 2   
   129  125  144 1   
   130  127  128 1   
   131  127  137 1   
   132  127  138 1   
   133  128  129 ar  
   134  128  130 ar  
   135  129  131 ar  
   136  129  139 1   
   137  130  132 ar  
   138  130  140 1   
   139  131  133 ar  
   140  131  141 1   
   141  132  133 ar  
   142  132  142 1   
   143  133  134 1   
   144  134  143 1   
   145  144  145 1   
   146  144  153 1   
   147  145  146 1   
   148  145  148 1   
   149  145  154 1   
   150  146  147 2   
   151  146  159 1   
   152  148  149 1   
   153  148  155 1   
   154  148  156 1   
   155  149  150 1   
   156  149  157 1   
   157  149  158 1   
   158  150  151 1   
   159  150  152 1   
   160  159  160 1   
   161  159  168 1   
   162  160  161 1   
   163  160  163 1   
   164  160  169 1   
   165  161  162 2   
   166  161  174 1   
   167  163  164 1   
   168  163  170 1   
   169  163  171 1   
   170  164  165 1   
   171  164  172 1   
   172  164  173 1   
   173  165  166 1   
   174  165  167 1   
   175  174  175 1   
   176  174  179 1   
   177  175  176 1   
   178  175  177 1   
   179  175  178 1   
   180  181  182 1   
   181  181  183 1   
   182  184  185 1   
   183  184  186 1   
   184  187  188 1   
   185  187  189 1   
   186  190  191 1   
   187  190  192 1   
@<TRIPOS>SUBSTRUCTURE
     1 MOL         1 TEMP              0 ****  ****    0 ROOT
