@<TRIPOS>MOLECULE
MOL
  189   185     1     0     0
SMALL
resp


@<TRIPOS>ATOM
      1 C1          4.0460    3.8790   -3.6050 c3        1 MOL     -0.294964
      2 C2          5.0160    3.2290   -2.5930 c         1 MOL      0.611143
      3 O1          4.6440    2.8370   -1.4970 o         1 MOL     -0.595985
      4 H1          3.0800    3.3760   -3.5560 hc        1 MOL      0.081730
      5 H2          3.9190    4.9340   -3.3610 hc        1 MOL      0.081730
      6 H3          4.4530    3.7850   -4.6120 hc        1 MOL      0.081730
      7 N1          6.1980    2.8240   -3.0850 n         1 MOL     -0.536232
      8 C3          7.0100    1.6970   -2.5310 c3        1 MOL      0.100555
      9 C4          6.1740    0.4610   -2.1490 c         1 MOL      0.498675
     10 O2          5.9550    0.2060   -0.9370 o         1 MOL     -0.508549
     11 C5          7.9970    2.3060   -1.4890 c3        1 MOL     -0.161242
     12 C6          7.5440    3.3440   -0.4280 c         1 MOL      0.720178
     13 O3          6.9710    2.9590    0.6060 o         1 MOL     -0.711594
     14 O4          7.8720    4.5350   -0.6300 o         1 MOL     -0.711594
     15 H4          6.3630    3.0850   -4.0440 hn        1 MOL      0.310936
     16 H5          7.6440    1.3910   -3.3650 h1        1 MOL      0.033267
     17 H6          8.7180    2.8330   -2.1100 hc        1 MOL      0.029292
     18 H7          8.4170    1.4120   -1.0330 hc        1 MOL      0.029292
     19 N2          5.4650   -0.1950   -3.0870 n         1 MOL     -0.510176
     20 C7          4.6480   -1.4490   -2.9130 c3        1 MOL      0.108565
     21 C8          5.3220   -2.6730   -2.1630 c         1 MOL      0.552219
     22 O5          5.7510   -3.6220   -2.8690 o         1 MOL     -0.587797
     23 C9          3.1350   -1.1950   -2.5880 c3        1 MOL      0.470583
     24 C10         2.2020   -2.4400   -2.7610 c3        1 MOL     -0.105520
     25 C11         2.4530    0.0180   -3.2000 c3        1 MOL     -0.101604
     26 C12         2.2010   -3.1670   -4.1050 c3        1 MOL     -0.331746
     27 H8          5.6270    0.1930   -4.0080 hn        1 MOL      0.266418
     28 H9          4.6390   -1.8200   -3.9410 h1        1 MOL     -0.012242
     29 H10         3.1530   -1.0430   -1.5090 hc        1 MOL     -0.192098
     30 H11         1.1730   -2.1340   -2.5710 hc        1 MOL      0.063518
     31 H12         2.4100   -3.1950   -1.9960 hc        1 MOL      0.063518
     32 H13         2.9530    0.9430   -2.9210 hc        1 MOL     -0.010767
     33 H14         2.4550   -0.0680   -4.2910 hc        1 MOL     -0.010767
     34 H15         1.4630    0.0190   -2.7440 hc        1 MOL     -0.010767
     35 H16         3.1890   -3.6030   -4.2480 hc        1 MOL      0.069388
     36 H17         1.4290   -3.9270   -4.0360 hc        1 MOL      0.069388
     37 H18         1.9900   -2.5070   -4.9500 hc        1 MOL      0.069388
     38 N3          5.3750   -2.7230   -0.8330 n         1 MOL     -0.465247
     39 C13         6.3280   -3.6060   -0.0350 c3        1 MOL      0.296245
     40 C14         5.6670   -4.8580    0.6220 c         1 MOL      0.476943
     41 O6          6.2820   -5.8970    0.5300 o         1 MOL     -0.522080
     42 C15         7.2480   -2.7810    0.7800 c3        1 MOL     -0.093045
     43 C16         8.4500   -3.4930    1.2250 c         1 MOL      0.723355
     44 O7          9.4010   -3.6060    0.4810 o         1 MOL     -0.750832
     45 O8          8.4550   -4.0150    2.3340 o         1 MOL     -0.750832
     46 H19         4.8490   -1.9770   -0.3940 hn        1 MOL      0.173176
     47 H20         6.9780   -4.0520   -0.7810 h1        1 MOL      0.010962
     48 H21         6.7130   -2.4230    1.6610 hc        1 MOL      0.016144
     49 H22         7.7370   -1.9120    0.3400 hc        1 MOL      0.016144
     50 N4          4.4980   -4.9160    1.2450 n         1 MOL     -0.493714
     51 C17         3.5730   -3.8220    1.6250 c3        1 MOL      0.129745
     52 C18         3.9540   -3.0550    2.9830 c         1 MOL      0.425899
     53 O9          4.9410   -3.5380    3.6780 o         1 MOL     -0.506686
     54 H23         4.1280   -5.8290    1.4660 hn        1 MOL      0.291810
     55 H24         2.5360   -4.1540    1.5700 h1        1 MOL      0.033331
     56 H25         3.6670   -3.1120    0.8030 h1        1 MOL      0.033331
     57 N5          3.3600   -1.9740    3.5020 n         1 MOL     -0.438459
     58 C19         2.1730   -1.2850    2.8980 c3        1 MOL      0.054389
     59 C20         2.3490   -0.7940    1.4550 c         1 MOL     -0.033790
     60 O10         3.4360   -0.4770    1.0200 o         1 MOL     -0.294415
     61 C21         1.6870   -0.1900    3.8390 c3        1 MOL     -0.304507
     62 C22         2.8220    0.7300    4.2330 c         1 MOL      0.720638
     63 O11         3.4100    1.3690    3.3150 o         1 MOL     -0.673463
     64 O12         3.1860    0.9890    5.3900 o         1 MOL     -0.673463
     65 H26         3.8330   -1.5280    4.2720 hn        1 MOL      0.328449
     66 H27         1.3700   -2.0240    2.7740 h1        1 MOL      0.056674
     67 H28         1.1500   -0.4860    4.7500 hc        1 MOL      0.092439
     68 H29         0.8820    0.2890    3.2800 hc        1 MOL      0.092439
     69 N6          1.3110   -0.6840    0.6260 n         1 MOL      0.017049
     70 C23        -0.0850   -1.0040    0.8290 c3        1 MOL     -0.007106
     71 C24        -0.3820   -2.4000    0.4470 c         1 MOL      0.510163
     72 O13         0.4530   -3.1470   -0.0490 o         1 MOL     -0.501857
     73 H30         1.5710   -0.2850   -0.2700 hn        1 MOL      0.181642
     74 H31        -0.7480   -0.3140    0.3130 h1        1 MOL      0.089420
     75 H32        -0.3540   -0.9240    1.8810 h1        1 MOL      0.089420
     76 N7         -1.6430   -2.8400    0.7610 n         1 MOL     -0.427422
     77 C25        -2.1890   -4.1230    0.3700 c3        1 MOL      0.094425
     78 C26        -2.9790   -4.0550   -0.9700 c         1 MOL      0.411331
     79 O14        -3.2040   -5.1680   -1.4990 o         1 MOL     -0.523768
     80 C27        -2.9580   -4.7670    1.4590 c3        1 MOL     -0.008684
     81 C28        -4.0830   -3.8780    1.9960 c3        1 MOL     -0.625905
     82 C29        -5.2020   -3.4570    0.9950 c         1 MOL      0.436359
     83 N8         -6.0200   -4.3810    0.6280 n         1 MOL     -0.627265
     84 O15        -5.2440   -2.3050    0.5850 o         1 MOL     -0.459995
     85 H33        -2.2620   -2.1450    1.1690 hn        1 MOL      0.246878
     86 H34        -1.3500   -4.7770    0.1210 h1        1 MOL      0.091819
     87 H35        -2.3120   -4.7920    2.3330 hc        1 MOL      0.055519
     88 H36        -3.3260   -5.7540    1.1900 hc        1 MOL      0.055519
     89 H37        -3.6740   -2.9770    2.4500 hc        1 MOL      0.222947
     90 H38        -4.5750   -4.5360    2.7080 hc        1 MOL      0.222947
     91 H39        -5.8650   -5.2740    1.0930 hn        1 MOL      0.343683
     92 H40        -6.8530   -4.2280    0.0850 hn        1 MOL      0.343683
     93 N9         -3.3550   -2.8640   -1.4950 n         1 MOL     -0.129921
     94 C30        -3.7700   -2.6420   -2.9190 c3        1 MOL     -0.282148
     95 C31        -5.0470   -1.8280   -3.2010 c         1 MOL      0.380149
     96 O16        -5.3780   -1.4240   -4.3210 o         1 MOL     -0.517832
     97 C32        -2.6150   -2.0630   -3.8110 c3        1 MOL      0.266749
     98 C33        -1.4800   -3.0880   -3.7970 c3        1 MOL     -0.144657
     99 C34        -2.0970   -0.7390   -3.2280 c3        1 MOL     -0.144657
    100 H41        -3.0370   -2.0060   -1.0600 hn        1 MOL      0.174207
    101 H42        -3.9770   -3.5600   -3.4580 h1        1 MOL      0.140914
    102 H43        -2.9340   -1.9500   -4.8510 hc        1 MOL      0.003880
    103 H44        -0.9760   -2.9810   -2.8420 hc        1 MOL      0.026337
    104 H45        -1.8570   -4.1100   -3.8820 hc        1 MOL      0.026337
    105 H46        -0.8880   -2.8490   -4.6760 hc        1 MOL      0.026337
    106 H47        -1.4010   -0.3860   -3.9910 hc        1 MOL      0.026337
    107 H48        -2.8640    0.0230   -3.0960 hc        1 MOL      0.026337
    108 H49        -1.6220   -0.9200   -2.2580 hc        1 MOL      0.026337
    109 N10        -5.7190   -1.4800   -2.0550 n         1 MOL     -0.108099
    110 C35        -7.0710   -0.9500   -2.1160 c3        1 MOL      0.011132
    111 C36        -7.2270    0.5520   -1.6740 c         1 MOL      0.514820
    112 O17        -8.2800    1.2080   -1.7710 o         1 MOL     -0.548023
    113 C37        -8.0750   -1.8680   -1.3100 c3        1 MOL      0.030672
    114 C38        -8.2890   -3.2620   -1.8390 c         1 MOL      0.597157
    115 N11        -8.5100   -3.3250   -3.1270 n         1 MOL     -0.779165
    116 O18        -8.1560   -4.2500   -1.1760 o         1 MOL     -0.552789
    117 H50        -5.3920   -1.8140   -1.1530 hn        1 MOL      0.246316
    118 H51        -7.4750   -0.9330   -3.1270 h1        1 MOL      0.022886
    119 H52        -9.0340   -1.3610   -1.4020 hc        1 MOL     -0.029524
    120 H53        -7.8130   -1.9310   -0.2520 hc        1 MOL     -0.029524
    121 H54        -8.5840   -2.4900   -3.6930 hn        1 MOL      0.371555
    122 H55        -8.6050   -4.2570   -3.4970 hn        1 MOL      0.371555
    123 N12        -6.1930    1.0680   -0.9700 n         1 MOL     -0.483828
    124 C39        -6.3310    2.2830   -0.1430 c3        1 MOL      0.301027
    125 C40        -4.9450    2.8840    0.1090 c         1 MOL      0.381819
    126 O19        -3.9770    2.1250    0.1500 o         1 MOL     -0.383241
    127 C41        -7.1010    1.9720    1.1850 c3        1 MOL      0.044301
    128 C42        -6.8730    0.6890    1.9220 ca        1 MOL     -0.078286
    129 C43        -7.7410   -0.3400    2.0030 ca        1 MOL      0.018983
    130 C44        -5.7270    0.6380    2.7640 ca        1 MOL      0.018983
    131 C45        -7.5580   -1.4050    2.8800 ca        1 MOL     -0.444144
    132 C46        -5.4430   -0.4320    3.6230 ca        1 MOL     -0.444144
    133 C47        -6.3430   -1.4750    3.6490 ca        1 MOL      0.544151
    134 O20        -6.1580   -2.5100    4.5300 oh        1 MOL     -0.484507
    135 H56        -5.4220    0.4460   -0.7850 hn        1 MOL      0.139622
    136 H57        -6.9190    3.0870   -0.6010 h1        1 MOL      0.007543
    137 H58        -8.1730    1.9850    0.9760 hc        1 MOL     -0.004155
    138 H59        -6.9030    2.7770    1.8870 hc        1 MOL     -0.004155
    139 H60        -8.6710   -0.2680    1.4630 ha        1 MOL      0.087918
    140 H61        -5.0360    1.4730    2.7640 ha        1 MOL      0.087918
    141 H62        -8.2960   -2.1950    2.8820 ha        1 MOL      0.186143
    142 H63        -4.5940   -0.4640    4.2950 ha        1 MOL      0.186143
    143 H64        -6.8290   -3.1760    4.3660 ho        1 MOL      0.288191
    144 N13        -4.8110    4.1400    0.4720 n         1 MOL     -0.550500
    145 C48        -3.7410    4.9020    1.0580 c3        1 MOL      0.160480
    146 C49        -2.4930    5.0590    0.1860 c         1 MOL      0.332823
    147 O21        -1.9010    6.1380    0.1160 o         1 MOL     -0.512781
    148 C50        -3.3020    4.3000    2.4010 c3        1 MOL     -0.073344
    149 C51        -4.4650    4.2610    3.4640 c3        1 MOL      0.048917
    150 C52        -3.9320    3.5840    4.7090 c         1 MOL      0.562890
    151 O22        -2.8760    4.0610    5.2660 o         1 MOL     -0.661372
    152 O23        -4.5900    2.5980    5.1300 o         1 MOL     -0.661372
    153 H65        -5.6970    4.6270    0.5270 hn        1 MOL      0.280327
    154 H66        -4.0000    5.9330    1.3170 h1        1 MOL      0.047262
    155 H67        -2.4760    4.8630    2.8220 hc        1 MOL      0.066018
    156 H68        -3.0360    3.2510    2.3190 hc        1 MOL      0.066018
    157 H69        -5.3630    3.7670    3.0960 hc        1 MOL     -0.050506
    158 H70        -4.7090    5.2860    3.7610 hc        1 MOL     -0.050506
    159 N14        -2.0700    4.0140   -0.5260 n         1 MOL     -0.117784
    160 C53        -0.9510    4.1920   -1.5060 c3        1 MOL     -0.324948
    161 C54        -1.3730    5.0300   -2.8000 c         1 MOL      0.645877
    162 O24        -0.5720    5.5740   -3.4880 o         1 MOL     -0.542780
    163 C55        -0.4900    2.8630   -1.9210 c3        1 MOL     -0.088933
    164 C56         0.0050    2.0330   -0.7570 c3        1 MOL      0.544603
    165 C57         1.2980    2.6010   -0.1130 c         1 MOL      0.486812
    166 O25         1.2980    3.6490    0.6420 o         1 MOL     -0.627070
    167 O26         2.3350    1.9360   -0.1870 o         1 MOL     -0.627070
    168 H71        -2.5690    3.1470   -0.3590 hn        1 MOL      0.149671
    169 H72        -0.1480    4.7630   -1.0410 h1        1 MOL      0.188357
    170 H73         0.3250    2.9560   -2.6320 hc        1 MOL      0.018794
    171 H74        -1.2290    2.3320   -2.5220 hc        1 MOL      0.018794
    172 H75         0.2840    1.0410   -1.1060 hc        1 MOL     -0.216424
    173 H76        -0.7640    1.9350    0.0120 hc        1 MOL     -0.216424
    174 N15        -2.7090    5.0630   -3.0690 n         1 MOL     -0.352651
    175 C58        -3.3550    6.0330   -3.9450 c3        1 MOL     -0.178295
    176 H77        -4.3430    5.6660   -4.2260 h1        1 MOL      0.082645
    177 H78        -3.4570    6.9840   -3.4220 h1        1 MOL      0.082645
    178 H79        -2.7520    6.1730   -4.8410 h1        1 MOL      0.082645
    179 H80        -3.3170    4.4640   -2.5330 hn        1 MOL      0.242951
    180 Ca1         4.6230    2.1450    1.0360 Ca        1 MOL      1.710622
    181 O27         3.7620    4.6860    0.6870 oh        1 MOL     -0.776689
    182 H81         4.3740    5.1780    0.1440 ho        1 MOL      0.375578
    183 H82         2.9090    4.8660    0.3100 ho        1 MOL      0.375578
    184 O28         6.0820    0.3330    2.3330 oh        1 MOL     -0.776689
    185 H83         6.9680   -0.0290    2.3090 ho        1 MOL      0.375578
    186 H84         5.5110   -0.4240    2.3470 ho        1 MOL      0.375578
    187 O29         5.7740    3.6890    3.0870 oh        1 MOL     -0.776689
    188 H85         6.6920    3.9130    2.9510 ho        1 MOL      0.375578
    189 H86         5.3690    4.5200    3.3600 ho        1 MOL      0.375578
@<TRIPOS>BOND
     1    1    2 1   
     2    1    4 1   
     3    1    5 1   
     4    1    6 1   
     5    2    3 2   
     6    2    7 1   
     7    7    8 1   
     8    7   15 1   
     9    8    9 1   
    10    8   11 1   
    11    8   16 1   
    12    9   10 2   
    13    9   19 1   
    14   11   12 1   
    15   11   17 1   
    16   11   18 1   
    17   12   13 1   
    18   12   14 1   
    19   19   20 1   
    20   19   27 1   
    21   20   21 1   
    22   20   23 1   
    23   20   28 1   
    24   21   22 2   
    25   21   38 1   
    26   23   24 1   
    27   23   25 1   
    28   23   29 1   
    29   24   26 1   
    30   24   30 1   
    31   24   31 1   
    32   25   32 1   
    33   25   33 1   
    34   25   34 1   
    35   26   35 1   
    36   26   36 1   
    37   26   37 1   
    38   38   39 1   
    39   38   46 1   
    40   39   40 1   
    41   39   42 1   
    42   39   47 1   
    43   40   41 2   
    44   40   50 1   
    45   42   43 1   
    46   42   48 1   
    47   42   49 1   
    48   43   44 1   
    49   43   45 1   
    50   50   51 1   
    51   50   54 1   
    52   51   52 1   
    53   51   55 1   
    54   51   56 1   
    55   52   53 2   
    56   52   57 1   
    57   57   58 1   
    58   57   65 1   
    59   58   59 1   
    60   58   61 1   
    61   58   66 1   
    62   59   60 2   
    63   59   69 1   
    64   61   62 1   
    65   61   67 1   
    66   61   68 1   
    67   62   63 1   
    68   62   64 1   
    69   69   70 1   
    70   69   73 1   
    71   70   71 1   
    72   70   74 1   
    73   70   75 1   
    74   71   72 2   
    75   71   76 1   
    76   76   77 1   
    77   76   85 1   
    78   77   78 1   
    79   77   80 1   
    80   77   86 1   
    81   78   79 2   
    82   78   93 1   
    83   80   81 1   
    84   80   87 1   
    85   80   88 1   
    86   81   82 1   
    87   81   89 1   
    88   81   90 1   
    89   82   83 1   
    90   82   84 2   
    91   83   91 1   
    92   83   92 1   
    93   93   94 1   
    94   93  100 1   
    95   94   95 1   
    96   94   97 1   
    97   94  101 1   
    98   95   96 2   
    99   95  109 1   
   100   97   98 1   
   101   97   99 1   
   102   97  102 1   
   103   98  103 1   
   104   98  104 1   
   105   98  105 1   
   106   99  106 1   
   107   99  107 1   
   108   99  108 1   
   109  109  110 1   
   110  109  117 1   
   111  110  111 1   
   112  110  113 1   
   113  110  118 1   
   114  111  112 2   
   115  111  123 1   
   116  113  114 1   
   117  113  119 1   
   118  113  120 1   
   119  114  115 1   
   120  114  116 2   
   121  115  121 1   
   122  115  122 1   
   123  123  124 1   
   124  123  135 1   
   125  124  125 1   
   126  124  127 1   
   127  124  136 1   
   128  125  126 2   
   129  125  144 1   
   130  127  128 1   
   131  127  137 1   
   132  127  138 1   
   133  128  129 ar  
   134  128  130 ar  
   135  129  131 ar  
   136  129  139 1   
   137  130  132 ar  
   138  130  140 1   
   139  131  133 ar  
   140  131  141 1   
   141  132  133 ar  
   142  132  142 1   
   143  133  134 1   
   144  134  143 1   
   145  144  145 1   
   146  144  153 1   
   147  145  146 1   
   148  145  148 1   
   149  145  154 1   
   150  146  147 2   
   151  146  159 1   
   152  148  149 1   
   153  148  155 1   
   154  148  156 1   
   155  149  150 1   
   156  149  157 1   
   157  149  158 1   
   158  150  151 1   
   159  150  152 1   
   160  159  160 1   
   161  159  168 1   
   162  160  161 1   
   163  160  163 1   
   164  160  169 1   
   165  161  162 2   
   166  161  174 1   
   167  163  164 1   
   168  163  170 1   
   169  163  171 1   
   170  164  165 1   
   171  164  172 1   
   172  164  173 1   
   173  165  166 1   
   174  165  167 1   
   175  174  175 1   
   176  174  179 1   
   177  175  176 1   
   178  175  177 1   
   179  175  178 1   
   180  181  182 1   
   181  181  183 1   
   182  184  185 1   
   183  184  186 1   
   184  187  188 1   
   185  187  189 1   
@<TRIPOS>SUBSTRUCTURE
     1 MOL         1 TEMP              0 ****  ****    0 ROOT
