@<TRIPOS>MOLECULE
MOL
  198   191     1     0     0
SMALL
resp


@<TRIPOS>ATOM
      1 C1         10.3290    3.9000   -4.3630 c3        1 MOL     -0.451776
      2 C2          9.8830    3.7790   -2.9120 c         1 MOL      0.880607
      3 O1          9.0140    2.9690   -2.6220 o         1 MOL     -0.640336
      4 H1          9.6150    3.3870   -5.0070 hc        1 MOL      0.103784
      5 H2         10.3760    4.9520   -4.6420 hc        1 MOL      0.103784
      6 H3         11.3140    3.4480   -4.4810 hc        1 MOL      0.103784
      7 N1         10.6420    4.3610   -2.0150 n         1 MOL     -0.727196
      8 C3         10.3620    4.2990   -0.6020 c3        1 MOL      0.141712
      9 C4         10.3650    2.8430    0.0930 c         1 MOL      0.420598
     10 O2         10.0700    2.7010    1.2770 o         1 MOL     -0.502735
     11 C5          9.2360    5.1820   -0.2480 c3        1 MOL     -0.309199
     12 C6          9.3700    6.5950   -0.8080 c         1 MOL      0.727597
     13 O3          8.4720    7.1030   -1.5660 o         1 MOL     -0.659254
     14 O4         10.4560    7.2330   -0.5590 o         1 MOL     -0.659254
     15 H4         11.2380    5.0680   -2.4170 hn        1 MOL      0.357983
     16 H5         11.2530    4.7630   -0.1780 h1        1 MOL      0.074337
     17 H6          9.2860    5.3600    0.8290 hc        1 MOL      0.087531
     18 H7          8.2970    4.7170   -0.5750 hc        1 MOL      0.087531
     19 N2         10.6470    1.7740   -0.6260 n         1 MOL     -0.232959
     20 C7         10.8540    0.4030   -0.1740 c3        1 MOL      0.069465
     21 C8          9.7590   -0.0800    0.6670 c         1 MOL      0.520962
     22 O5         10.0160   -0.9150    1.5200 o         1 MOL     -0.533174
     23 C9         12.2330    0.3270    0.5790 c3        1 MOL     -0.365358
     24 C10        13.4630    0.7220   -0.2910 c3        1 MOL     -0.005458
     25 C11        14.3080   -0.3530   -0.9280 c3        1 MOL     -0.083385
     26 C12        15.3210    0.5520   -1.6380 c3        1 MOL      0.043867
     27 N3         16.1110   -0.1710   -2.6950 n4        1 MOL     -0.321787
     28 H8         10.6220    1.9220   -1.6230 hn        1 MOL      0.183901
     29 H9         10.7570   -0.1530   -1.1060 h1        1 MOL      0.054104
     30 H10        12.4350   -0.6860    0.9420 hc        1 MOL      0.166170
     31 H11        12.2830    1.0000    1.4330 hc        1 MOL      0.166170
     32 H12        14.1080    1.3170    0.3610 hc        1 MOL      0.030521
     33 H13        13.2190    1.4600   -1.0530 hc        1 MOL      0.030521
     34 H14        13.7990   -1.0360   -1.6090 hc        1 MOL      0.058666
     35 H15        14.7220   -1.0060   -0.1710 hc        1 MOL      0.058666
     36 H16        15.9660    0.9390   -0.8560 hx        1 MOL      0.081675
     37 H17        14.8840    1.4550   -2.0620 hx        1 MOL      0.081675
     38 H18        15.5470   -0.5520   -3.4510 hn        1 MOL      0.269016
     39 H19        16.7100    0.5420   -3.0910 hn        1 MOL      0.269016
     40 H20        16.5870   -1.0040   -2.3780 hn        1 MOL      0.269016
     41 N4          8.5430    0.2530    0.3620 n         1 MOL     -0.691202
     42 C13         7.3570   -0.1870    1.0240 c3        1 MOL      0.817799
     43 C14         6.1570   -0.4520    0.0340 c         1 MOL      0.275098
     44 O6          5.2600    0.4010   -0.0830 o         1 MOL     -0.552519
     45 C15         6.8950    0.7700    2.1200 c3        1 MOL     -0.439667
     46 C16         5.7110    0.2370    2.9250 c         1 MOL      0.635801
     47 O7          5.1580    0.9650    3.7310 o         1 MOL     -0.646377
     48 O8          5.2580   -0.8990    2.6990 o         1 MOL     -0.646377
     49 H21         8.4560    0.9580   -0.3570 hn        1 MOL      0.349760
     50 H22         7.7120   -1.0820    1.5210 h1        1 MOL     -0.071594
     51 H23         6.6420    1.7060    1.6280 hc        1 MOL      0.117251
     52 H24         7.6440    0.9040    2.9060 hc        1 MOL      0.117251
     53 N5          6.0250   -1.4560   -0.8450 n         1 MOL     -0.379919
     54 C17         6.8890   -2.6560   -0.8120 c3        1 MOL     -0.241093
     55 C18         6.2390   -3.8480   -0.0830 c         1 MOL      0.691510
     56 O9          6.5460   -4.9770   -0.4130 o         1 MOL     -0.605658
     57 H25         5.1440   -1.5040   -1.3360 hn        1 MOL      0.386253
     58 H26         7.8340   -2.5170   -0.2690 h1        1 MOL      0.106341
     59 H27         7.0030   -2.9600   -1.8550 h1        1 MOL      0.106341
     60 N6          5.2220   -3.6240    0.7210 n         1 MOL     -0.258314
     61 C19         4.2330   -4.6890    1.1050 c3        1 MOL      0.059222
     62 C20         2.7830   -4.0620    0.9420 c         1 MOL      0.336861
     63 O10         2.6880   -2.8080    1.0610 o         1 MOL     -0.472103
     64 C21         4.5290   -5.2960    2.4980 c3        1 MOL     -0.178154
     65 C22         4.3030   -4.3970    3.7020 c         1 MOL      0.658451
     66 O11         3.8920   -3.2240    3.6600 o         1 MOL     -0.675393
     67 O12         4.4810   -4.9750    4.7990 o         1 MOL     -0.675393
     68 H28         4.9300   -2.6560    0.7990 hn        1 MOL      0.004874
     69 H29         4.2980   -5.4850    0.3600 h1        1 MOL      0.042506
     70 H30         5.5690   -5.5830    2.3220 hc        1 MOL      0.063734
     71 H31         3.9820   -6.2260    2.6020 hc        1 MOL      0.063734
     72 N7          1.6960   -4.7970    0.6420 n         1 MOL     -0.242665
     73 C23         0.2590   -4.3970    0.6590 c3        1 MOL     -0.290367
     74 C24        -0.2200   -3.4850   -0.4500 c         1 MOL      0.652461
     75 O13        -1.3980   -3.2650   -0.5460 o         1 MOL     -0.571099
     76 H32         1.8640   -5.7610    0.4020 hn        1 MOL      0.268449
     77 H33         0.0310   -3.9100    1.6040 h1        1 MOL      0.154489
     78 H34        -0.3490   -5.2990    0.6000 h1        1 MOL      0.154489
     79 N8          0.6680   -2.9710   -1.3030 n         1 MOL     -0.376122
     80 C25         0.3470   -1.9340   -2.3230 c3        1 MOL     -0.141436
     81 C26        -0.3690   -0.7320   -1.6480 c         1 MOL      0.290995
     82 O14        -0.1080   -0.3720   -0.4820 o         1 MOL     -0.472298
     83 C27         1.5930   -1.4670   -3.0710 c3        1 MOL      0.271843
     84 C28         2.7050   -0.8680   -2.2240 c3        1 MOL      0.009674
     85 O15         2.2350   -2.6100   -3.5540 oh        1 MOL     -0.587370
     86 H35         1.6240   -3.2730   -1.1930 hn        1 MOL      0.239765
     87 H36        -0.3220   -2.3810   -3.0530 h1        1 MOL      0.119011
     88 H37         1.3370   -0.8180   -3.9040 h1        1 MOL      0.027146
     89 H38         1.8040   -2.8580   -4.3830 ho        1 MOL      0.380942
     90 H39         2.4470    0.1830   -2.0650 hc        1 MOL      0.011659
     91 H40         2.8110   -1.3720   -1.2560 hc        1 MOL      0.011659
     92 H41         3.6600   -0.8710   -2.7360 hc        1 MOL      0.011659
     93 N9         -1.3590   -0.0800   -2.3030 n         1 MOL     -0.030856
     94 C29        -2.0920    1.0560   -1.7720 c3        1 MOL     -0.172210
     95 C30        -3.3520    0.5360   -1.0540 c         1 MOL      0.507901
     96 O16        -3.8610    1.2360   -0.1900 o         1 MOL     -0.525688
     97 C31        -2.4440    2.0690   -2.9800 c3        1 MOL      0.088284
     98 C32        -1.1040    2.7120   -3.3760 c3        1 MOL     -0.048334
     99 C33        -3.4080    3.1200   -2.5400 c3        1 MOL     -0.278798
    100 C34        -0.2200    1.9430   -4.4190 c3        1 MOL     -0.161937
    101 H42        -1.3880   -0.2390   -3.2990 hn        1 MOL      0.161100
    102 H43        -1.5110    1.5620   -0.9920 h1        1 MOL      0.128361
    103 H44        -2.8510    1.5580   -3.8590 hc        1 MOL      0.047053
    104 H45        -0.5050    2.8890   -2.4830 hc        1 MOL      0.052466
    105 H46        -1.2340    3.7590   -3.6400 hc        1 MOL      0.052466
    106 H47        -4.3790    2.6580   -2.3840 hc        1 MOL      0.083473
    107 H48        -3.1400    3.5750   -1.5930 hc        1 MOL      0.083473
    108 H49        -3.5710    3.8750   -3.3050 hc        1 MOL      0.083473
    109 H50        -0.5580    2.1340   -5.4420 hc        1 MOL      0.038211
    110 H51         0.8660    2.0740   -4.4020 hc        1 MOL      0.038211
    111 H52        -0.3630    0.8700   -4.3580 hc        1 MOL      0.038211
    112 N10        -3.8180   -0.6470   -1.3820 n         1 MOL     -0.350620
    113 C35        -4.9810   -1.3280   -0.8820 c3        1 MOL      0.058625
    114 C36        -6.0130   -1.4990   -2.0350 c         1 MOL      0.621629
    115 O17        -5.6440   -1.3900   -3.2240 o         1 MOL     -0.549379
    116 C37        -4.5490   -2.6200   -0.2930 c3        1 MOL      0.392238
    117 C38        -5.6360   -3.4200    0.4530 c3        1 MOL     -0.284540
    118 O18        -4.0940   -3.4510   -1.3170 oh        1 MOL     -0.626267
    119 H53        -3.3980   -1.1720   -2.1320 hn        1 MOL      0.161880
    120 H54        -5.4400   -0.7050   -0.1240 h1        1 MOL      0.018398
    121 H55        -3.7480   -2.5260    0.4420 h1        1 MOL     -0.013837
    122 H56        -3.1380   -3.4590   -1.2070 ho        1 MOL      0.391291
    123 H57        -5.9200   -2.9380    1.3880 hc        1 MOL      0.067360
    124 H58        -6.5120   -3.6010   -0.1660 hc        1 MOL      0.067360
    125 H59        -5.2610   -4.4090    0.7000 hc        1 MOL      0.067360
    126 N11        -7.2740   -1.7540   -1.7470 n         1 MOL     -0.563266
    127 C39        -8.3910   -2.0440   -2.7090 c3        1 MOL      0.039482
    128 C40        -9.5660   -1.0990   -2.5160 c         1 MOL      0.663173
    129 O19        -9.9780   -0.5510   -3.5340 o         1 MOL     -0.553820
    130 C41        -8.7610   -3.5350   -2.5290 c3        1 MOL      0.252329
    131 C42        -9.7500   -4.1010   -3.5400 c3        1 MOL     -0.439941
    132 O20        -9.3380   -3.6600   -1.2610 oh        1 MOL     -0.668977
    133 H60        -7.5270   -1.8270   -0.7730 hn        1 MOL      0.281754
    134 H61        -8.0500   -1.8330   -3.7180 h1        1 MOL      0.099741
    135 H62        -7.8130   -4.0740   -2.4660 h1        1 MOL      0.087501
    136 H63       -10.0070   -4.3440   -1.2580 ho        1 MOL      0.431524
    137 H64       -10.7030   -3.5740   -3.4850 hc        1 MOL      0.121683
    138 H65        -9.3530   -4.0000   -4.5530 hc        1 MOL      0.121683
    139 H66        -9.8320   -5.1660   -3.2750 hc        1 MOL      0.121683
    140 N12        -9.9970   -0.8940   -1.2280 n         1 MOL     -0.561377
    141 C43       -11.0750    0.0570   -0.9180 c3        1 MOL      0.054822
    142 C44       -10.8970    0.6060    0.5410 c         1 MOL      0.397514
    143 O21       -10.7320   -0.2300    1.4850 o         1 MOL     -0.496500
    144 C45       -12.4220   -0.5840   -1.1200 c3        1 MOL     -0.166873
    145 C46       -13.6320    0.4620   -1.2090 c3        1 MOL     -0.097280
    146 C47       -15.0210   -0.2840   -1.2450 c3        1 MOL     -0.023076
    147 C48       -16.0560    0.8340   -1.5260 c3        1 MOL      0.079196
    148 N13       -17.4120    0.3200   -1.4900 n4        1 MOL     -0.197457
    149 H67        -9.4520   -1.3900   -0.5370 hn        1 MOL      0.339130
    150 H68       -11.0310    0.9140   -1.5800 h1        1 MOL      0.076950
    151 H69       -12.6020   -1.3340   -0.3510 hc        1 MOL      0.093329
    152 H70       -12.3910   -1.1870   -2.0240 hc        1 MOL      0.093329
    153 H71       -13.3600    0.9550   -2.1450 hc        1 MOL      0.063756
    154 H72       -13.7180    1.1630   -0.3880 hc        1 MOL      0.063756
    155 H73       -15.2620   -0.8520   -0.3390 hc        1 MOL      0.032695
    156 H74       -15.1210   -0.9890   -2.0640 hc        1 MOL      0.032695
    157 H75       -15.8010    1.3820   -2.4330 hx        1 MOL      0.064215
    158 H76       -16.0350    1.6240   -0.7760 hx        1 MOL      0.064215
    159 H77       -17.5980   -0.1910   -0.6350 hn        1 MOL      0.222776
    160 H78       -18.1370    1.0180   -1.5950 hn        1 MOL      0.222776
    161 H79       -17.5650   -0.3760   -2.2060 hn        1 MOL      0.222776
    162 N14       -10.9450    1.8990    0.7850 n         1 MOL     -0.211716
    163 C49       -11.0840    2.5060    2.1010 c3        1 MOL      0.077694
    164 C50        -9.7210    2.3830    2.8680 c         1 MOL      0.297340
    165 O22        -9.7870    2.0250    4.0850 o         1 MOL     -0.502402
    166 C51       -11.5860    3.9830    2.0200 c3        1 MOL     -0.107257
    167 C52       -11.4230    4.7660    3.3420 c3        1 MOL     -0.080741
    168 C53       -11.8420    6.2380    3.3160 c         1 MOL      0.711496
    169 O23       -12.3670    6.7350    2.3090 o         1 MOL     -0.656368
    170 O24       -11.7540    6.8940    4.3510 o         1 MOL     -0.656368
    171 H80       -11.2100    2.4250   -0.0300 hn        1 MOL      0.191779
    172 H81       -11.7370    1.9730    2.7990 h1        1 MOL      0.079539
    173 H82       -12.6150    4.0620    1.6510 hc        1 MOL      0.020063
    174 H83       -10.9610    4.5740    1.3520 hc        1 MOL      0.020063
    175 H84       -10.3740    4.8120    3.6320 hc        1 MOL      0.037365
    176 H85       -11.9800    4.3650    4.1910 hc        1 MOL      0.037365
    177 N15        -8.5250    2.6820    2.3010 n         1 MOL     -0.237388
    178 C54        -8.2660    3.3770    0.9990 c3        1 MOL     -0.190262
    179 H86        -8.7340    2.8170    0.1900 h1        1 MOL      0.095609
    180 H87        -8.6830    4.3830    1.0350 h1        1 MOL      0.095609
    181 H88        -7.1910    3.4340    0.8260 h1        1 MOL      0.095609
    182 H89        -7.6930    2.5370    2.8520 hn        1 MOL      0.269431
    183 Ca1         2.7380   -1.1170    3.1090 Ca        1 MOL      1.706229
    184 O25         0.8620   -2.0110    4.8310 oh        1 MOL     -0.801482
    185 H90         0.7850   -1.5240    5.6520 ho        1 MOL      0.395975
    186 H91         0.4780   -2.8630    5.0270 ho        1 MOL      0.395975
    187 O26         2.8180    0.4110    0.9100 oh        1 MOL     -0.801482
    188 H92         2.2690    0.9970    0.3790 ho        1 MOL      0.395975
    189 H93         3.6210    0.3160    0.3990 ho        1 MOL      0.395975
    190 O27         3.5420   -0.7520    5.6900 oh        1 MOL     -0.801482
    191 H94         3.6200   -1.3880    6.3990 ho        1 MOL      0.395975
    192 H95         3.4650    0.0960    6.1310 ho        1 MOL      0.395975
    193 O28         0.3540   -1.1740    2.1920 oh        1 MOL     -0.801482
    194 H96         0.2130   -0.9920    1.2610 ho        1 MOL      0.395975
    195 H97        -0.5230   -1.1020    2.5750 ho        1 MOL      0.395975
    196 O29         1.1770    0.9760    4.0080 oh        1 MOL     -0.801482
    197 H98         1.3900    1.5150    4.7730 ho        1 MOL      0.395975
    198 H99         0.3090    0.6340    4.1930 ho        1 MOL      0.395975
@<TRIPOS>BOND
     1    1    2 1   
     2    1    4 1   
     3    1    5 1   
     4    1    6 1   
     5    2    3 2   
     6    2    7 1   
     7    7    8 1   
     8    7   15 1   
     9    8    9 1   
    10    8   11 1   
    11    8   16 1   
    12    9   10 2   
    13    9   19 1   
    14   11   12 1   
    15   11   17 1   
    16   11   18 1   
    17   12   13 1   
    18   12   14 1   
    19   19   20 1   
    20   19   28 1   
    21   20   21 1   
    22   20   23 1   
    23   20   29 1   
    24   21   22 2   
    25   21   41 1   
    26   23   24 1   
    27   23   30 1   
    28   23   31 1   
    29   24   25 1   
    30   24   32 1   
    31   24   33 1   
    32   25   26 1   
    33   25   34 1   
    34   25   35 1   
    35   26   27 1   
    36   26   36 1   
    37   26   37 1   
    38   27   38 1   
    39   27   39 1   
    40   27   40 1   
    41   41   42 1   
    42   41   49 1   
    43   42   43 1   
    44   42   45 1   
    45   42   50 1   
    46   43   44 2   
    47   43   53 1   
    48   45   46 1   
    49   45   51 1   
    50   45   52 1   
    51   46   47 1   
    52   46   48 1   
    53   53   54 1   
    54   53   57 1   
    55   54   55 1   
    56   54   58 1   
    57   54   59 1   
    58   55   56 2   
    59   55   60 1   
    60   60   61 1   
    61   60   68 1   
    62   61   62 1   
    63   61   64 1   
    64   61   69 1   
    65   62   63 2   
    66   62   72 1   
    67   64   65 1   
    68   64   70 1   
    69   64   71 1   
    70   65   66 1   
    71   65   67 1   
    72   72   73 1   
    73   72   76 1   
    74   73   74 1   
    75   73   77 1   
    76   73   78 1   
    77   74   75 2   
    78   74   79 1   
    79   79   80 1   
    80   79   86 1   
    81   80   81 1   
    82   80   83 1   
    83   80   87 1   
    84   81   82 2   
    85   81   93 1   
    86   83   84 1   
    87   83   85 1   
    88   83   88 1   
    89   84   90 1   
    90   84   91 1   
    91   84   92 1   
    92   85   89 1   
    93   93   94 1   
    94   93  101 1   
    95   94   95 1   
    96   94   97 1   
    97   94  102 1   
    98   95   96 2   
    99   95  112 1   
   100   97   98 1   
   101   97   99 1   
   102   97  103 1   
   103   98  100 1   
   104   98  104 1   
   105   98  105 1   
   106   99  106 1   
   107   99  107 1   
   108   99  108 1   
   109  100  109 1   
   110  100  110 1   
   111  100  111 1   
   112  112  113 1   
   113  112  119 1   
   114  113  114 1   
   115  113  116 1   
   116  113  120 1   
   117  114  115 2   
   118  114  126 1   
   119  116  117 1   
   120  116  118 1   
   121  116  121 1   
   122  117  123 1   
   123  117  124 1   
   124  117  125 1   
   125  118  122 1   
   126  126  127 1   
   127  126  133 1   
   128  127  128 1   
   129  127  130 1   
   130  127  134 1   
   131  128  129 2   
   132  128  140 1   
   133  130  131 1   
   134  130  132 1   
   135  130  135 1   
   136  131  137 1   
   137  131  138 1   
   138  131  139 1   
   139  132  136 1   
   140  140  141 1   
   141  140  149 1   
   142  141  142 1   
   143  141  144 1   
   144  141  150 1   
   145  142  143 2   
   146  142  162 1   
   147  144  145 1   
   148  144  151 1   
   149  144  152 1   
   150  145  146 1   
   151  145  153 1   
   152  145  154 1   
   153  146  147 1   
   154  146  155 1   
   155  146  156 1   
   156  147  148 1   
   157  147  157 1   
   158  147  158 1   
   159  148  159 1   
   160  148  160 1   
   161  148  161 1   
   162  162  163 1   
   163  162  171 1   
   164  163  164 1   
   165  163  166 1   
   166  163  172 1   
   167  164  165 2   
   168  164  177 1   
   169  166  167 1   
   170  166  173 1   
   171  166  174 1   
   172  167  168 1   
   173  167  175 1   
   174  167  176 1   
   175  168  169 1   
   176  168  170 1   
   177  177  178 1   
   178  177  182 1   
   179  178  179 1   
   180  178  180 1   
   181  178  181 1   
   182  184  185 1   
   183  184  186 1   
   184  187  188 1   
   185  187  189 1   
   186  190  191 1   
   187  190  192 1   
   188  193  194 1   
   189  193  195 1   
   190  196  197 1   
   191  196  198 1   
@<TRIPOS>SUBSTRUCTURE
     1 MOL         1 TEMP              0 ****  ****    0 ROOT
