@<TRIPOS>MOLECULE
MOL
  188   182     1     0     0
SMALL
resp


@<TRIPOS>ATOM
      1 C1         -4.3810    2.0210   -2.4690 c3        1 MOL     -0.167604
      2 C2         -5.4530    2.2580   -1.4320 c         1 MOL      0.683772
      3 O1         -5.1890    1.9230   -0.2780 o         1 MOL     -0.513447
      4 H1         -4.6670    1.1790   -3.1000 hc        1 MOL      0.031687
      5 H2         -4.2660    2.9130   -3.0860 hc        1 MOL      0.031687
      6 H3         -3.4370    1.7980   -1.9730 hc        1 MOL      0.031687
      7 N1         -6.6140    2.8010   -1.7860 n         1 MOL     -0.564289
      8 C3         -7.6560    2.9450   -0.8180 c3        1 MOL      0.155128
      9 C4         -8.1350    1.7480    0.1090 c         1 MOL      0.433927
     10 O2         -8.6230    2.0340    1.2090 o         1 MOL     -0.472092
     11 C5         -7.1850    4.1520    0.0140 c3        1 MOL     -0.313758
     12 C6         -6.8480    5.3660   -0.8750 c         1 MOL      0.685454
     13 O3         -5.6170    5.7520   -0.8680 o         1 MOL     -0.635641
     14 O4         -7.6870    5.9060   -1.6300 o         1 MOL     -0.635641
     15 H4         -6.7410    3.1840   -2.7090 hn        1 MOL      0.339370
     16 H5         -8.5630    3.2170   -1.3710 h1        1 MOL      0.047318
     17 H6         -6.3170    3.9050    0.6240 hc        1 MOL      0.092177
     18 H7         -7.9420    4.3130    0.7850 hc        1 MOL      0.092177
     19 N2         -7.9360    0.5020   -0.3540 n         1 MOL     -0.373490
     20 C7         -8.2760   -0.7780    0.3250 c3        1 MOL      0.160091
     21 C8         -7.1060   -1.5290    0.9800 c         1 MOL      0.588556
     22 O5         -7.2830   -2.5380    1.5800 o         1 MOL     -0.585623
     23 C9         -9.1470   -1.5730   -0.7100 c3        1 MOL     -0.280151
     24 C10        -8.5370   -1.7320   -2.1120 c3        1 MOL      0.352540
     25 C11        -9.3740   -2.7790   -2.8770 c3        1 MOL     -0.011524
     26 C12        -8.9800   -2.6990   -4.3250 c3        1 MOL     -0.167561
     27 N3         -7.8830   -3.7550   -4.6140 n4        1 MOL     -0.244939
     28 H8         -7.5030    0.4580   -1.2630 hn        1 MOL      0.131537
     29 H9         -8.9320   -0.5370    1.1560 h1        1 MOL      0.075533
     30 H10       -10.1260   -1.0870   -0.6790 hc        1 MOL      0.062827
     31 H11        -9.2580   -2.6030   -0.3780 hc        1 MOL      0.062827
     32 H12        -7.5310   -2.1350   -1.9870 hc        1 MOL     -0.077855
     33 H13        -8.4760   -0.7830   -2.6540 hc        1 MOL     -0.077855
     34 H14       -10.4350   -2.5270   -2.8660 hc        1 MOL      0.032817
     35 H15        -9.1430   -3.7610   -2.4680 hc        1 MOL      0.032817
     36 H16        -8.6310   -1.6790   -4.4770 hx        1 MOL      0.144486
     37 H17        -9.8930   -3.0510   -4.8160 hx        1 MOL      0.144486
     38 H18        -7.6160   -3.7780   -5.5830 hn        1 MOL      0.239533
     39 H19        -7.0510   -3.6650   -4.0540 hn        1 MOL      0.239533
     40 H20        -8.3360   -4.6490   -4.5220 hn        1 MOL      0.239533
     41 N4         -5.9420   -1.0140    0.7240 n         1 MOL     -0.347269
     42 C13        -4.6720   -1.6660    1.0540 c3        1 MOL     -0.154315
     43 C14        -4.2010   -1.4670    2.4750 c         1 MOL      0.751052
     44 O6         -4.3210   -0.3970    3.0460 o         1 MOL     -0.522783
     45 C15        -3.6690   -1.1450    0.0330 c3        1 MOL     -0.013424
     46 C16        -2.2970   -1.8030   -0.0080 c         1 MOL      0.453426
     47 O7         -1.9330   -2.7230    0.8030 o         1 MOL     -0.637291
     48 O8         -1.4760   -1.3920   -0.8460 o         1 MOL     -0.637291
     49 H21        -5.9080   -0.1760    0.1730 hn        1 MOL      0.209283
     50 H22        -4.7680   -2.7350    0.8630 h1        1 MOL      0.021712
     51 H23        -3.5490   -0.1100    0.3510 hc        1 MOL      0.056080
     52 H24        -4.1130   -1.1190   -0.9670 hc        1 MOL      0.056080
     53 N5         -3.6690   -2.5540    3.0910 n         1 MOL     -0.567415
     54 C17        -3.0450   -2.5350    4.4070 c3        1 MOL     -0.109442
     55 C18        -1.7280   -1.8250    4.5660 c         1 MOL      0.357625
     56 O9         -1.3280   -1.5160    5.6910 o         1 MOL     -0.530427
     57 H25        -3.5910   -3.4270    2.5930 hn        1 MOL      0.322931
     58 H26        -2.9240   -3.5340    4.8270 h1        1 MOL      0.121950
     59 H27        -3.6920   -2.0030    5.1070 h1        1 MOL      0.121950
     60 N6         -1.1000   -1.4780    3.4760 n         1 MOL     -0.093780
     61 C19         0.1820   -0.7000    3.4470 c3        1 MOL     -0.057439
     62 C20        -0.1620    0.8370    3.4610 c         1 MOL      0.572185
     63 O10         0.6290    1.6570    3.9000 o         1 MOL     -0.538373
     64 C21         0.9980   -1.1580    2.2800 c3        1 MOL     -0.215429
     65 C22         1.3450   -2.6320    2.5200 c         1 MOL      0.659794
     66 N7          2.2350   -2.9680    3.3660 n         1 MOL     -0.675957
     67 O11         0.8210   -3.5060    1.8140 o         1 MOL     -0.668646
     68 H28        -1.4130   -1.9740    2.6590 hn        1 MOL      0.134893
     69 H29         0.7370   -1.0070    4.3280 h1        1 MOL      0.069992
     70 H30         1.8740   -0.5270    2.1800 hc        1 MOL      0.114958
     71 H31         0.3970   -1.0670    1.3690 hc        1 MOL      0.114958
     72 H32         2.7600   -2.3250    3.9560 hn        1 MOL      0.351182
     73 H33         2.5670   -3.9210    3.3070 hn        1 MOL      0.351182
     74 N8         -1.3470    1.2240    2.9910 n         1 MOL     -0.364988
     75 C23        -1.7090    2.6120    2.7060 c3        1 MOL     -0.139091
     76 C24        -0.9480    3.0270    1.4760 c         1 MOL      0.482668
     77 O12        -0.7400    2.1850    0.5400 o         1 MOL     -0.428526
     78 H34        -1.9220    0.4860    2.5900 hn        1 MOL      0.284630
     79 H35        -1.4100    3.3090    3.4860 h1        1 MOL      0.124361
     80 H36        -2.7760    2.6800    2.5000 h1        1 MOL      0.124361
     81 N9         -0.6000    4.3470    1.4670 n         1 MOL     -0.545582
     82 C25         0.4360    5.0320    0.6120 c3        1 MOL      0.350956
     83 C26         1.7150    4.2620    0.3290 c         1 MOL      0.261557
     84 O13         2.7470    4.8640    0.1600 o         1 MOL     -0.522018
     85 C27        -0.0880    5.5810   -0.6860 c3        1 MOL     -0.301463
     86 C28         0.7030    6.8080   -1.2630 ca        1 MOL      0.124665
     87 C29         0.7080    7.9530   -0.5130 ca        1 MOL     -0.163727
     88 C30         1.4590    6.8880   -2.4450 ca        1 MOL     -0.163727
     89 C31         1.3700    9.1370   -0.8100 ca        1 MOL     -0.311809
     90 C32         2.3160    8.0180   -2.7520 ca        1 MOL     -0.311809
     91 C33         2.2330    9.1500   -1.8880 ca        1 MOL      0.393921
     92 O14         2.9600   10.2610   -2.1920 oh        1 MOL     -0.481492
     93 H37        -0.9790    4.8660    2.2460 hn        1 MOL      0.313588
     94 H38         0.6960    5.8780    1.2500 h1        1 MOL      0.038602
     95 H39        -1.0830    5.9960   -0.5290 hc        1 MOL      0.125594
     96 H40        -0.1570    4.8220   -1.4650 hc        1 MOL      0.125594
     97 H41         0.0040    8.0200    0.2990 ha        1 MOL      0.139303
     98 H42         1.5610    6.0290   -3.0920 ha        1 MOL      0.139303
     99 H43         1.3970    9.9540   -0.1080 ha        1 MOL      0.167925
    100 H44         3.0920    7.8650   -3.4870 ha        1 MOL      0.167925
    101 H45         3.3350   10.0720   -3.0540 ho        1 MOL      0.343858
    102 N10         1.6610    2.9860   -0.1350 n         1 MOL     -0.218438
    103 C34         2.7970    2.0960   -0.5950 c3        1 MOL     -0.030261
    104 C35         3.7370    1.6850    0.5360 c         1 MOL      0.468832
    105 O15         3.9020    0.4770    0.7270 o         1 MOL     -0.597569
    106 C36         3.6040    2.6940   -1.8020 c3        1 MOL      0.202167
    107 C37         2.5960    2.7000   -2.9820 c3        1 MOL      0.233101
    108 C38         4.8760    1.8760   -2.1680 c3        1 MOL     -0.354571
    109 C39         3.1550    3.0870   -4.3490 c3        1 MOL     -0.406606
    110 H46         0.7450    2.5930   -0.3250 hn        1 MOL      0.157739
    111 H47         2.4050    1.1530   -0.9830 h1        1 MOL      0.079990
    112 H48         3.8730    3.7210   -1.5520 hc        1 MOL     -0.017410
    113 H49         1.8680    3.4890   -2.8200 hc        1 MOL     -0.032442
    114 H50         2.0500    1.7600   -3.0600 hc        1 MOL     -0.032442
    115 H51         5.7090    1.9650   -1.4690 hc        1 MOL      0.083174
    116 H52         4.5430    0.8570   -2.3650 hc        1 MOL      0.083174
    117 H53         5.3140    2.3310   -3.0570 hc        1 MOL      0.083174
    118 H54         2.3330    3.4810   -4.9570 hc        1 MOL      0.088681
    119 H55         3.9170    3.8500   -4.2270 hc        1 MOL      0.088681
    120 H56         3.4800    2.1340   -4.7670 hc        1 MOL      0.088681
    121 N11         4.3560    2.5920    1.2190 n         1 MOL     -0.239684
    122 C40         5.1910    2.3420    2.3900 c3        1 MOL      0.105372
    123 C41         6.5510    1.7970    1.9610 c         1 MOL      0.270592
    124 O16         7.1290    1.0980    2.8410 o         1 MOL     -0.488159
    125 C42         5.4150    3.6550    3.1200 c3        1 MOL      0.151552
    126 O17         4.1320    4.0890    3.4730 oh        1 MOL     -0.567520
    127 H57         4.1510    3.5640    0.9970 hn        1 MOL      0.258501
    128 H58         4.7900    1.6380    3.1110 h1        1 MOL      0.110601
    129 H59         5.9390    4.3040    2.4150 h1        1 MOL      0.023297
    130 H60         5.9930    3.4720    4.0310 h1        1 MOL      0.023297
    131 H61         4.1200    5.0380    3.6640 ho        1 MOL      0.393193
    132 N12         7.0040    1.9650    0.7370 n         1 MOL     -0.249067
    133 C43         8.0260    1.1560    0.0880 c3        1 MOL      0.255181
    134 C44         7.8720   -0.3560    0.3710 c         1 MOL      0.560513
    135 O18         8.9280   -0.9690    0.6250 o         1 MOL     -0.541491
    136 C45         9.4350    1.6560    0.3570 c3        1 MOL     -0.304285
    137 H62         6.4530    2.5950    0.1610 hn        1 MOL      0.159799
    138 H63         7.8580    1.1070   -0.9850 h1        1 MOL      0.011690
    139 H64         9.4430    2.7170    0.1200 hc        1 MOL      0.079825
    140 H65         9.7540    1.4660    1.3830 hc        1 MOL      0.079825
    141 H66        10.1180    1.1740   -0.3450 hc        1 MOL      0.079825
    142 N13         6.6650   -0.9540    0.2060 n         1 MOL     -0.625315
    143 C46         6.3920   -2.3350    0.3520 c3        1 MOL      0.533469
    144 C47         5.9410   -2.9160   -0.9720 c         1 MOL      0.279970
    145 O19         5.4070   -2.1860   -1.8200 o         1 MOL     -0.396309
    146 C48         5.3090   -2.5150    1.3690 c3        1 MOL      0.027356
    147 H67         5.8130   -0.4460    0.0280 hn        1 MOL      0.209143
    148 H68         7.2850   -2.9000    0.6420 h1        1 MOL     -0.065560
    149 H69         4.4240   -1.9080    1.1940 hc        1 MOL     -0.013619
    150 H70         4.9860   -3.5580    1.3760 hc        1 MOL     -0.013619
    151 H71         5.6680   -2.4090    2.3900 hc        1 MOL     -0.013619
    152 N14         6.0280   -4.2830   -1.0970 n         1 MOL     -0.397523
    153 C49         5.5140   -5.0490   -2.2900 c3        1 MOL     -0.015238
    154 C50         5.8880   -4.4210   -3.6510 c         1 MOL      0.319808
    155 O20         5.1360   -4.5460   -4.6640 o         1 MOL     -0.469834
    156 C51         4.0250   -5.1850   -2.0860 c3        1 MOL      0.346423
    157 C52         3.6500   -6.0750   -0.8360 c3        1 MOL     -0.259167
    158 C53         2.1260   -6.1050   -0.6820 c         1 MOL      0.824942
    159 O21         1.2860   -5.8940   -1.5950 o         1 MOL     -0.781246
    160 O22         1.6640   -6.3130    0.4640 o         1 MOL     -0.781246
    161 H72         6.6320   -4.8180   -0.4900 hn        1 MOL      0.258609
    162 H73         5.9560   -6.0480   -2.2580 h1        1 MOL      0.064890
    163 H74         3.5680   -5.6300   -2.9620 hc        1 MOL     -0.056495
    164 H75         3.6090   -4.1920   -1.9180 hc        1 MOL     -0.056495
    165 H76         4.1170   -5.6610    0.0560 hc        1 MOL      0.015957
    166 H77         4.0490   -7.0530   -1.0960 hc        1 MOL      0.015957
    167 N15         7.1080   -3.8760   -3.7500 n         1 MOL     -0.226096
    168 C54         7.5760   -3.0080   -4.8570 c3        1 MOL     -0.235987
    169 H78         8.5600   -2.6070   -4.6120 h1        1 MOL      0.112472
    170 H79         7.6410   -3.5930   -5.7750 h1        1 MOL      0.112472
    171 H80         6.8740   -2.1870   -4.9980 h1        1 MOL      0.112472
    172 H81         7.7640   -3.9480   -2.9790 hn        1 MOL      0.226361
    173 Ca1        -0.6140   -4.8630    0.0780 Ca        1 MOL      1.767295
    174 O23        -1.4380   -7.1910   -1.0510 oh        1 MOL     -0.825254
    175 H82        -2.3410   -7.3790   -0.8160 ho        1 MOL      0.410897
    176 H83        -1.1770   -7.9190   -1.6100 ho        1 MOL      0.410897
    177 O24        -3.3000   -5.4240    0.2580 oh        1 MOL     -0.825254
    178 H84        -3.8120   -5.1130   -0.4910 ho        1 MOL      0.410897
    179 H85        -3.9580   -5.7340    0.8760 ho        1 MOL      0.410897
    180 O25        -1.5630   -4.2940   -2.4600 oh        1 MOL     -0.825254
    181 H86        -2.2420   -4.4680   -3.1190 ho        1 MOL      0.410897
    182 H87        -0.9690   -3.6840   -2.8870 ho        1 MOL      0.410897
    183 O26         0.9050   -2.8890   -0.9230 oh        1 MOL     -0.825254
    184 H88         1.6350   -2.3010   -1.1460 ho        1 MOL      0.410897
    185 H89         0.1690   -2.3010   -0.7550 ho        1 MOL      0.410897
    186 O27        -1.0440   -6.5210    2.0150 oh        1 MOL     -0.825254
    187 H90        -1.3610   -7.4120    2.1520 ho        1 MOL      0.410897
    188 H91        -0.5900   -6.2950    2.8290 ho        1 MOL      0.410897
@<TRIPOS>BOND
     1    1    2 1   
     2    1    4 1   
     3    1    5 1   
     4    1    6 1   
     5    2    3 2   
     6    2    7 1   
     7    7    8 1   
     8    7   15 1   
     9    8    9 1   
    10    8   11 1   
    11    8   16 1   
    12    9   10 2   
    13    9   19 1   
    14   11   12 1   
    15   11   17 1   
    16   11   18 1   
    17   12   13 1   
    18   12   14 1   
    19   19   20 1   
    20   19   28 1   
    21   20   21 1   
    22   20   23 1   
    23   20   29 1   
    24   21   22 2   
    25   21   41 1   
    26   23   24 1   
    27   23   30 1   
    28   23   31 1   
    29   24   25 1   
    30   24   32 1   
    31   24   33 1   
    32   25   26 1   
    33   25   34 1   
    34   25   35 1   
    35   26   27 1   
    36   26   36 1   
    37   26   37 1   
    38   27   38 1   
    39   27   39 1   
    40   27   40 1   
    41   41   42 1   
    42   41   49 1   
    43   42   43 1   
    44   42   45 1   
    45   42   50 1   
    46   43   44 2   
    47   43   53 1   
    48   45   46 1   
    49   45   51 1   
    50   45   52 1   
    51   46   47 1   
    52   46   48 1   
    53   53   54 1   
    54   53   57 1   
    55   54   55 1   
    56   54   58 1   
    57   54   59 1   
    58   55   56 2   
    59   55   60 1   
    60   60   61 1   
    61   60   68 1   
    62   61   62 1   
    63   61   64 1   
    64   61   69 1   
    65   62   63 2   
    66   62   74 1   
    67   64   65 1   
    68   64   70 1   
    69   64   71 1   
    70   65   66 1   
    71   65   67 2   
    72   66   72 1   
    73   66   73 1   
    74   74   75 1   
    75   74   78 1   
    76   75   76 1   
    77   75   79 1   
    78   75   80 1   
    79   76   77 2   
    80   76   81 1   
    81   81   82 1   
    82   81   93 1   
    83   82   83 1   
    84   82   85 1   
    85   82   94 1   
    86   83   84 2   
    87   83  102 1   
    88   85   86 1   
    89   85   95 1   
    90   85   96 1   
    91   86   87 ar  
    92   86   88 ar  
    93   87   89 ar  
    94   87   97 1   
    95   88   90 ar  
    96   88   98 1   
    97   89   91 ar  
    98   89   99 1   
    99   90   91 ar  
   100   90  100 1   
   101   91   92 1   
   102   92  101 1   
   103  102  103 1   
   104  102  110 1   
   105  103  104 1   
   106  103  106 1   
   107  103  111 1   
   108  104  105 2   
   109  104  121 1   
   110  106  107 1   
   111  106  108 1   
   112  106  112 1   
   113  107  109 1   
   114  107  113 1   
   115  107  114 1   
   116  108  115 1   
   117  108  116 1   
   118  108  117 1   
   119  109  118 1   
   120  109  119 1   
   121  109  120 1   
   122  121  122 1   
   123  121  127 1   
   124  122  123 1   
   125  122  125 1   
   126  122  128 1   
   127  123  124 2   
   128  123  132 1   
   129  125  126 1   
   130  125  129 1   
   131  125  130 1   
   132  126  131 1   
   133  132  133 1   
   134  132  137 1   
   135  133  134 1   
   136  133  136 1   
   137  133  138 1   
   138  134  135 2   
   139  134  142 1   
   140  136  139 1   
   141  136  140 1   
   142  136  141 1   
   143  142  143 1   
   144  142  147 1   
   145  143  144 1   
   146  143  146 1   
   147  143  148 1   
   148  144  145 2   
   149  144  152 1   
   150  146  149 1   
   151  146  150 1   
   152  146  151 1   
   153  152  153 1   
   154  152  161 1   
   155  153  154 1   
   156  153  156 1   
   157  153  162 1   
   158  154  155 2   
   159  154  167 1   
   160  156  157 1   
   161  156  163 1   
   162  156  164 1   
   163  157  158 1   
   164  157  165 1   
   165  157  166 1   
   166  158  159 1   
   167  158  160 1   
   168  167  168 1   
   169  167  172 1   
   170  168  169 1   
   171  168  170 1   
   172  168  171 1   
   173  174  175 1   
   174  174  176 1   
   175  177  178 1   
   176  177  179 1   
   177  180  181 1   
   178  180  182 1   
   179  183  184 1   
   180  183  185 1   
   181  186  187 1   
   182  186  188 1   
@<TRIPOS>SUBSTRUCTURE
     1 MOL         1 TEMP              0 ****  ****    0 ROOT
