@<TRIPOS>MOLECULE
MOL
  188   182     1     0     0
SMALL
resp


@<TRIPOS>ATOM
      1 C1         -5.6630   -2.5760    1.5290 c3        1 MOL     -0.172353
      2 C2         -6.7150   -2.1450    0.4760 c         1 MOL      0.585956
      3 O1         -6.3000   -1.8990   -0.6620 o         1 MOL     -0.508084
      4 H1         -6.0050   -3.4790    2.0340 hc        1 MOL      0.025417
      5 H2         -4.7120   -2.7730    1.0350 hc        1 MOL      0.025417
      6 H3         -5.5330   -1.7790    2.2620 hc        1 MOL      0.025417
      7 N1         -8.0120   -2.1870    0.7570 n         1 MOL     -0.468926
      8 C3         -9.1560   -2.0670   -0.1320 c3        1 MOL      0.236068
      9 C4         -9.1810   -0.7880   -0.8930 c         1 MOL      0.277033
     10 O2         -9.5030   -0.7420   -2.1390 o         1 MOL     -0.400131
     11 C5         -9.4060   -3.3760   -0.9300 c3        1 MOL     -0.307531
     12 C6        -10.6960   -3.3650   -1.7870 c         1 MOL      0.662921
     13 O3        -11.7280   -2.8440   -1.3010 o         1 MOL     -0.617869
     14 O4        -10.6950   -3.8340   -2.9610 o         1 MOL     -0.617869
     15 H4         -8.1480   -2.5430    1.6950 hn        1 MOL      0.270558
     16 H5         -9.9770   -2.0430    0.5760 h1        1 MOL      0.012301
     17 H6         -9.3440   -4.2520   -0.2870 hc        1 MOL      0.088745
     18 H7         -8.5700   -3.6150   -1.5950 hc        1 MOL      0.088745
     19 N2         -8.6790    0.2090   -0.2480 n         1 MOL     -0.264652
     20 C7         -8.5240    1.5520   -0.8810 c3        1 MOL      0.139480
     21 C8         -7.1520    2.1070   -0.6210 c         1 MOL      0.487048
     22 O5         -6.8930    3.1140   -1.2600 o         1 MOL     -0.522395
     23 C9         -9.6790    2.4960   -0.4690 c3        1 MOL     -0.229802
     24 C10        -9.8260    2.7430    0.9850 c3        1 MOL      0.067751
     25 C11       -10.5530    4.0450    1.3510 c3        1 MOL      0.026107
     26 C12       -11.0620    3.9840    2.7790 c3        1 MOL     -0.093726
     27 N3         -9.9770    3.8100    3.7710 n4        1 MOL     -0.071345
     28 H8         -8.4060    0.2030    0.7190 hn        1 MOL      0.138463
     29 H9         -8.6060    1.3960   -1.9570 h1        1 MOL      0.102553
     30 H10       -10.6150    2.1640   -0.9040 hc        1 MOL      0.098303
     31 H11        -9.4980    3.4580   -0.9430 hc        1 MOL      0.098303
     32 H12        -8.9030    2.6960    1.5650 hc        1 MOL     -0.011091
     33 H13       -10.3810    1.9200    1.4280 hc        1 MOL     -0.011091
     34 H14       -11.3990    4.2420    0.6880 hc        1 MOL      0.028954
     35 H15        -9.8670    4.8880    1.2950 hc        1 MOL      0.028954
     36 H16       -11.7500    3.1630    2.9850 hx        1 MOL      0.104832
     37 H17       -11.5130    4.9240    3.0700 hx        1 MOL      0.104832
     38 H18        -9.6150    2.8720    3.8530 hn        1 MOL      0.167960
     39 H19        -9.2750    4.5200    3.6890 hn        1 MOL      0.167960
     40 H20       -10.2660    3.9820    4.7260 hn        1 MOL      0.167960
     41 N4         -6.2510    1.4460    0.1110 n         1 MOL     -0.367611
     42 C13        -4.8660    1.8720    0.2090 c3        1 MOL     -0.090103
     43 C14        -4.1790    2.4190   -1.0640 c         1 MOL      0.437901
     44 O6         -4.2590    1.8500   -2.1620 o         1 MOL     -0.355527
     45 C15        -3.9640    0.6490    0.6420 c3        1 MOL     -0.005620
     46 C16        -2.5430    1.0440    0.8740 c         1 MOL      0.694746
     47 O7         -2.2240    1.6010    1.9380 o         1 MOL     -0.801110
     48 O8         -1.7040    0.8950    0.0420 o         1 MOL     -0.801110
     49 H21        -6.5450    0.6410    0.6410 hn        1 MOL      0.258261
     50 H22        -4.7550    2.5540    1.0630 h1        1 MOL      0.050508
     51 H23        -4.0560   -0.0640   -0.1700 hc        1 MOL      0.024821
     52 H24        -4.2080    0.1470    1.5840 hc        1 MOL      0.024821
     53 N5         -3.4200    3.5170   -0.8480 n         1 MOL     -0.300298
     54 C17        -2.8400    4.3700   -1.9130 c3        1 MOL     -0.235498
     55 C18        -1.7290    3.6870   -2.7340 c         1 MOL      0.409009
     56 O9         -1.3990    4.1870   -3.7960 o         1 MOL     -0.517424
     57 H25        -3.6070    4.0260    0.0030 hn        1 MOL      0.271076
     58 H26        -2.5340    5.3430   -1.5370 h1        1 MOL      0.145181
     59 H27        -3.6320    4.6010   -2.6230 h1        1 MOL      0.145181
     60 N6         -1.3070    2.4460   -2.4150 n         1 MOL     -0.097134
     61 C19        -0.6080    1.5270   -3.3280 c3        1 MOL     -0.144838
     62 C20        -1.0820    0.0760   -3.2940 c         1 MOL      0.506382
     63 O10        -0.5140   -0.8620   -3.8720 o         1 MOL     -0.576786
     64 C21         0.9170    1.7280   -3.3670 c3        1 MOL     -0.211987
     65 C22         1.6300    1.3400   -2.1540 c         1 MOL      0.463654
     66 N7          2.9240    1.6580   -2.0540 n         1 MOL     -0.608947
     67 O11         1.1230    0.9440   -1.1290 o         1 MOL     -0.573623
     68 H28        -1.5530    2.0270   -1.5200 hn        1 MOL      0.242240
     69 H29        -0.9980    1.8190   -4.3060 h1        1 MOL      0.155807
     70 H30         1.1770    2.7710   -3.5620 hc        1 MOL      0.118552
     71 H31         1.2920    1.1980   -4.2490 hc        1 MOL      0.118552
     72 H32         3.3760    2.2230   -2.7730 hn        1 MOL      0.325712
     73 H33         3.2670    1.5830   -1.1090 hn        1 MOL      0.325712
     74 N8         -2.1560   -0.1560   -2.5520 n         1 MOL     -0.068747
     75 C23        -2.8560   -1.4810   -2.3500 c3        1 MOL     -0.099856
     76 C24        -2.2650   -2.4740   -1.3100 c         1 MOL      0.468025
     77 O12        -2.4920   -3.7030   -1.3980 o         1 MOL     -0.501666
     78 H34        -2.5700    0.6680   -2.1390 hn        1 MOL     -0.066766
     79 H35        -2.8470   -1.9590   -3.3350 h1        1 MOL      0.117578
     80 H36        -3.8970   -1.2480   -2.1390 h1        1 MOL      0.117578
     81 N9         -1.3650   -1.9850   -0.3890 n         1 MOL     -0.610974
     82 C25        -0.6770   -2.7540    0.6690 c3        1 MOL      0.434103
     83 C26         0.5260   -1.9700    1.1330 c         1 MOL      0.095424
     84 O13         0.5050   -0.7620    0.9520 o         1 MOL     -0.455953
     85 C27        -1.6230   -3.1690    1.8110 c3        1 MOL     -0.203579
     86 C28        -0.9220   -3.2450    3.2060 ca        1 MOL      0.063153
     87 C29         0.0620   -4.2600    3.5550 ca        1 MOL     -0.197063
     88 C30        -1.0420   -2.1420    4.1260 ca        1 MOL     -0.197063
     89 C31         0.7260   -4.2050    4.8250 ca        1 MOL     -0.255447
     90 C32        -0.2610   -2.0750    5.3440 ca        1 MOL     -0.255447
     91 C33         0.5570   -3.1410    5.6740 ca        1 MOL      0.414428
     92 O14         1.1740   -3.0580    6.8990 oh        1 MOL     -0.505844
     93 H37        -1.1680   -1.0000   -0.3690 hn        1 MOL      0.480570
     94 H38        -0.3060   -3.6560    0.1760 h1        1 MOL     -0.016584
     95 H39        -1.9600   -4.1860    1.6370 hc        1 MOL      0.112517
     96 H40        -2.5530   -2.5920    1.8430 hc        1 MOL      0.112517
     97 H41         0.2150   -5.1150    2.9110 ha        1 MOL      0.137972
     98 H42        -1.6880   -1.3130    3.8840 ha        1 MOL      0.137972
     99 H43         1.3340   -5.0600    5.0620 ha        1 MOL      0.133835
    100 H44        -0.4370   -1.2580    6.0330 ha        1 MOL      0.133835
    101 H45         1.1270   -2.2270    7.3660 ho        1 MOL      0.360748
    102 N10         1.5340   -2.7150    1.5640 n         1 MOL     -0.184221
    103 C34         2.9520   -2.2960    1.4090 c3        1 MOL     -0.289240
    104 C35         3.1670   -1.8000   -0.0190 c         1 MOL      0.253812
    105 O15         3.7620   -0.7320   -0.2440 o         1 MOL     -0.474462
    106 C36         4.0280   -3.4000    1.7380 c3        1 MOL      0.167857
    107 C37         3.8240   -3.9650    3.1280 c3        1 MOL     -0.208383
    108 C38         5.5080   -3.1360    1.4440 c3        1 MOL     -0.381758
    109 C39         4.2090   -3.0160    4.2520 c3        1 MOL     -0.057171
    110 H46         1.4100   -3.7110    1.6920 hn        1 MOL      0.223722
    111 H47         3.0970   -1.3630    1.9570 h1        1 MOL      0.234843
    112 H48         3.8490   -4.2280    1.0500 hc        1 MOL     -0.002764
    113 H49         4.4200   -4.8670    3.2580 hc        1 MOL      0.109762
    114 H50         2.7820   -4.1640    3.3520 hc        1 MOL      0.109762
    115 H51         5.8340   -2.2110    1.9330 hc        1 MOL      0.117889
    116 H52         6.0120   -4.0070    1.8700 hc        1 MOL      0.117889
    117 H53         5.7550   -2.9550    0.3950 hc        1 MOL      0.117889
    118 H54         5.2560   -2.7300    4.1670 hc        1 MOL      0.023080
    119 H55         3.6070   -2.1070    4.3200 hc        1 MOL      0.023080
    120 H56         4.1730   -3.5120    5.2230 hc        1 MOL      0.023080
    121 N11         2.6680   -2.5520   -1.0320 n         1 MOL      0.001225
    122 C40         2.6940   -2.1260   -2.4310 c3        1 MOL     -0.383463
    123 C41         4.0650   -1.9570   -3.0720 c         1 MOL      0.690435
    124 O16         4.2590   -1.1340   -3.9420 o         1 MOL     -0.534967
    125 C42         1.8680   -3.0440   -3.2970 c3        1 MOL      0.005717
    126 O17         2.5340   -4.2190   -3.5980 oh        1 MOL     -0.650019
    127 H57         2.4990   -3.5350   -0.8770 hn        1 MOL      0.239551
    128 H58         2.2000   -1.1570   -2.4600 h1        1 MOL      0.212329
    129 H59         1.6650   -2.5240   -4.2380 h1        1 MOL      0.130880
    130 H60         0.9250   -3.3800   -2.8770 h1        1 MOL      0.130880
    131 H61         2.2100   -4.6460   -4.3960 ho        1 MOL      0.437728
    132 N12         5.0870   -2.6870   -2.5170 n         1 MOL     -0.281584
    133 C43         6.5030   -2.8760   -2.9280 c3        1 MOL      0.100352
    134 C44         7.2310   -1.5210   -3.1340 c         1 MOL      0.434826
    135 O18         8.2570   -1.4860   -3.9080 o         1 MOL     -0.518336
    136 C45         6.6070   -3.9100   -4.0860 c3        1 MOL     -0.419638
    137 H62         4.7650   -3.3370   -1.8130 hn        1 MOL      0.216193
    138 H63         7.0360   -3.3730   -2.1220 h1        1 MOL      0.076904
    139 H64         5.8640   -4.6820   -3.8810 hc        1 MOL      0.126756
    140 H65         6.2880   -3.3930   -4.9920 hc        1 MOL      0.126756
    141 H66         7.6230   -4.2450   -4.2640 hc        1 MOL      0.126756
    142 N13         6.7740   -0.4290   -2.5080 n         1 MOL     -0.503000
    143 C46         7.5410    0.8440   -2.4010 c3        1 MOL      0.595238
    144 C47         8.0060    1.0670   -0.9730 c         1 MOL      0.232683
    145 O19         7.3110    0.4870   -0.0860 o         1 MOL     -0.457765
    146 C48         6.8220    2.0970   -2.9420 c3        1 MOL     -0.225747
    147 H67         6.0040   -0.5340   -1.8670 hn        1 MOL      0.229601
    148 H68         8.3780    0.7310   -3.0880 h1        1 MOL     -0.056048
    149 H69         7.3600    2.6630   -3.7000 hc        1 MOL      0.050127
    150 H70         5.8290    1.8430   -3.3040 hc        1 MOL      0.050127
    151 H71         6.5450    2.8430   -2.1960 hc        1 MOL      0.050127
    152 N14         8.9780    1.8540   -0.6040 n         1 MOL     -0.427350
    153 C49         9.4550    2.0630    0.7490 c3        1 MOL     -0.214248
    154 C50        10.1770    0.8560    1.3960 c         1 MOL      0.418888
    155 O20        10.2430    0.8210    2.6520 o         1 MOL     -0.509191
    156 C51         8.3760    2.6690    1.7020 c3        1 MOL      0.359241
    157 C52         7.6820    3.9100    1.2130 c3        1 MOL     -0.179500
    158 C53         8.5820    5.2160    1.2790 c         1 MOL      0.682554
    159 O21         8.1150    6.1320    2.0360 o         1 MOL     -0.676640
    160 O22         9.6500    5.3210    0.6840 o         1 MOL     -0.676640
    161 H72         9.4060    2.4380   -1.3020 hn        1 MOL      0.306370
    162 H73        10.1760    2.8620    0.6140 h1        1 MOL      0.152578
    163 H74         8.7690    2.9760    2.6780 hc        1 MOL     -0.044656
    164 H75         7.5940    1.9560    1.9360 hc        1 MOL     -0.044656
    165 H76         6.9010    4.0890    1.9640 hc        1 MOL     -0.029897
    166 H77         7.2440    3.7480    0.2330 hc        1 MOL     -0.029897
    167 N15        10.4750   -0.2530    0.6690 n         1 MOL     -0.183933
    168 C54        10.9520   -1.5510    1.1550 c3        1 MOL     -0.256208
    169 H78        10.3260   -1.8790    1.9850 h1        1 MOL      0.112303
    170 H79        10.9000   -2.2830    0.3490 h1        1 MOL      0.112303
    171 H80        11.9840   -1.4560    1.4950 h1        1 MOL      0.112303
    172 H81        10.3120   -0.1900   -0.3270 hn        1 MOL      0.211136
    173 Ca1         0.3890    1.7810    1.3960 Ca        1 MOL      1.785516
    174 O23         2.4120    3.3730    0.6970 oh        1 MOL     -0.799603
    175 H82         2.6440    3.7630   -0.1470 ho        1 MOL      0.401141
    176 H83         2.9780    3.8280    1.3220 ho        1 MOL      0.401141
    177 O24        -0.3550    4.0310    0.2240 oh        1 MOL     -0.799603
    178 H84        -0.7840    4.7710    0.6580 ho        1 MOL      0.401141
    179 H85         0.2250    4.4400   -0.4220 ho        1 MOL      0.401141
    180 O25        -0.3220    0.7580    3.7780 oh        1 MOL     -0.799603
    181 H86        -1.2650    0.6030    3.9080 ho        1 MOL      0.401141
    182 H87         0.0880    0.2780    4.4930 ho        1 MOL      0.401141
    183 O26         2.5310    1.2240    2.8850 oh        1 MOL     -0.799603
    184 H88         3.3720    1.1820    2.4320 ho        1 MOL      0.401141
    185 H89         2.7670    1.2330    3.8120 ho        1 MOL      0.401141
    186 O27         0.4320    3.7340    3.2670 oh        1 MOL     -0.799603
    187 H90         0.8990    4.5650    3.1880 ho        1 MOL      0.401141
    188 H91         0.3780    3.5700    4.2140 ho        1 MOL      0.401141
@<TRIPOS>BOND
     1    1    2 1   
     2    1    4 1   
     3    1    5 1   
     4    1    6 1   
     5    2    3 2   
     6    2    7 1   
     7    7    8 1   
     8    7   15 1   
     9    8    9 1   
    10    8   11 1   
    11    8   16 1   
    12    9   10 2   
    13    9   19 1   
    14   11   12 1   
    15   11   17 1   
    16   11   18 1   
    17   12   13 1   
    18   12   14 1   
    19   19   20 1   
    20   19   28 1   
    21   20   21 1   
    22   20   23 1   
    23   20   29 1   
    24   21   22 2   
    25   21   41 1   
    26   23   24 1   
    27   23   30 1   
    28   23   31 1   
    29   24   25 1   
    30   24   32 1   
    31   24   33 1   
    32   25   26 1   
    33   25   34 1   
    34   25   35 1   
    35   26   27 1   
    36   26   36 1   
    37   26   37 1   
    38   27   38 1   
    39   27   39 1   
    40   27   40 1   
    41   41   42 1   
    42   41   49 1   
    43   42   43 1   
    44   42   45 1   
    45   42   50 1   
    46   43   44 2   
    47   43   53 1   
    48   45   46 1   
    49   45   51 1   
    50   45   52 1   
    51   46   47 1   
    52   46   48 1   
    53   53   54 1   
    54   53   57 1   
    55   54   55 1   
    56   54   58 1   
    57   54   59 1   
    58   55   56 2   
    59   55   60 1   
    60   60   61 1   
    61   60   68 1   
    62   61   62 1   
    63   61   64 1   
    64   61   69 1   
    65   62   63 2   
    66   62   74 1   
    67   64   65 1   
    68   64   70 1   
    69   64   71 1   
    70   65   66 1   
    71   65   67 2   
    72   66   72 1   
    73   66   73 1   
    74   74   75 1   
    75   74   78 1   
    76   75   76 1   
    77   75   79 1   
    78   75   80 1   
    79   76   77 2   
    80   76   81 1   
    81   81   82 1   
    82   81   93 1   
    83   82   83 1   
    84   82   85 1   
    85   82   94 1   
    86   83   84 2   
    87   83  102 1   
    88   85   86 1   
    89   85   95 1   
    90   85   96 1   
    91   86   87 ar  
    92   86   88 ar  
    93   87   89 ar  
    94   87   97 1   
    95   88   90 ar  
    96   88   98 1   
    97   89   91 ar  
    98   89   99 1   
    99   90   91 ar  
   100   90  100 1   
   101   91   92 1   
   102   92  101 1   
   103  102  103 1   
   104  102  110 1   
   105  103  104 1   
   106  103  106 1   
   107  103  111 1   
   108  104  105 2   
   109  104  121 1   
   110  106  107 1   
   111  106  108 1   
   112  106  112 1   
   113  107  109 1   
   114  107  113 1   
   115  107  114 1   
   116  108  115 1   
   117  108  116 1   
   118  108  117 1   
   119  109  118 1   
   120  109  119 1   
   121  109  120 1   
   122  121  122 1   
   123  121  127 1   
   124  122  123 1   
   125  122  125 1   
   126  122  128 1   
   127  123  124 2   
   128  123  132 1   
   129  125  126 1   
   130  125  129 1   
   131  125  130 1   
   132  126  131 1   
   133  132  133 1   
   134  132  137 1   
   135  133  134 1   
   136  133  136 1   
   137  133  138 1   
   138  134  135 2   
   139  134  142 1   
   140  136  139 1   
   141  136  140 1   
   142  136  141 1   
   143  142  143 1   
   144  142  147 1   
   145  143  144 1   
   146  143  146 1   
   147  143  148 1   
   148  144  145 2   
   149  144  152 1   
   150  146  149 1   
   151  146  150 1   
   152  146  151 1   
   153  152  153 1   
   154  152  161 1   
   155  153  154 1   
   156  153  156 1   
   157  153  162 1   
   158  154  155 2   
   159  154  167 1   
   160  156  157 1   
   161  156  163 1   
   162  156  164 1   
   163  157  158 1   
   164  157  165 1   
   165  157  166 1   
   166  158  159 1   
   167  158  160 1   
   168  167  168 1   
   169  167  172 1   
   170  168  169 1   
   171  168  170 1   
   172  168  171 1   
   173  174  175 1   
   174  174  176 1   
   175  177  178 1   
   176  177  179 1   
   177  180  181 1   
   178  180  182 1   
   179  183  184 1   
   180  183  185 1   
   181  186  187 1   
   182  186  188 1   
@<TRIPOS>SUBSTRUCTURE
     1 MOL         1 TEMP              0 ****  ****    0 ROOT
