@<TRIPOS>MOLECULE
MOL
  198   191     1     0     0
SMALL
resp


@<TRIPOS>ATOM
      1 C1         -3.3000    4.6020    3.2440 c3        1 MOL     -0.469055
      2 C2         -4.6100    3.7790    3.5470 c         1 MOL      0.576469
      3 O1         -4.7130    3.0210    4.5390 o         1 MOL     -0.569132
      4 H1         -2.9520    5.0810    4.1590 hc        1 MOL      0.121927
      5 H2         -2.5280    3.9300    2.8700 hc        1 MOL      0.121927
      6 H3         -3.5140    5.3630    2.4940 hc        1 MOL      0.121927
      7 N1         -5.5610    3.9090    2.5810 n         1 MOL     -0.250879
      8 C3         -6.8640    3.2020    2.5130 c3        1 MOL     -0.145344
      9 C4         -6.8600    1.9890    1.5180 c         1 MOL      0.346355
     10 O2         -6.7160    2.2170    0.3410 o         1 MOL     -0.456440
     11 C5         -8.0690    4.1270    2.1530 c3        1 MOL      0.004620
     12 C6         -7.8390    5.1690    1.0160 c         1 MOL      0.473873
     13 O3         -6.8770    4.9850    0.2500 o         1 MOL     -0.603297
     14 O4         -8.6030    6.1130    0.9220 o         1 MOL     -0.603297
     15 H4         -5.3120    4.5850    1.8670 hn        1 MOL      0.209724
     16 H5         -7.1000    2.9560    3.5450 h1        1 MOL      0.095481
     17 H6         -8.2710    4.6810    3.0690 hc        1 MOL      0.046395
     18 H7         -9.0120    3.6020    1.9630 hc        1 MOL      0.046395
     19 N2         -7.1370    0.7660    2.0010 n         1 MOL     -0.328953
     20 C7         -7.4140   -0.4650    1.1960 c3        1 MOL      0.076628
     21 C8         -8.7670   -0.4380    0.4530 c         1 MOL      0.648799
     22 O5         -9.7760   -0.2960    1.1680 o         1 MOL     -0.585497
     23 C9         -7.2880   -1.7010    2.1100 c3        1 MOL     -0.200168
     24 C10        -5.8850   -1.9580    2.6540 c3        1 MOL      0.027713
     25 C11        -6.0830   -2.7350    3.9360 c3        1 MOL     -0.044213
     26 C12        -4.7180   -3.0810    4.6920 c3        1 MOL     -0.003000
     27 N3         -4.1700   -4.4540    4.4950 n4        1 MOL     -0.438938
     28 H8         -7.4510    0.6940    2.9560 hn        1 MOL      0.270457
     29 H9         -6.7800   -0.4660    0.3180 h1        1 MOL     -0.008330
     30 H10        -7.6860   -2.6240    1.6710 hc        1 MOL      0.063562
     31 H11        -7.9480   -1.5560    2.9640 hc        1 MOL      0.063562
     32 H12        -5.4430   -1.0160    3.0010 hc        1 MOL      0.021563
     33 H13        -5.2520   -2.4930    1.9380 hc        1 MOL      0.021563
     34 H14        -6.5010   -3.7030    3.6530 hc        1 MOL      0.056902
     35 H15        -6.7320   -2.1290    4.5840 hc        1 MOL      0.056902
     36 H16        -4.9920   -2.9210    5.7350 hx        1 MOL      0.090998
     37 H17        -3.9840   -2.3240    4.4260 hx        1 MOL      0.090998
     38 H18        -3.5700   -4.4770    3.6860 hn        1 MOL      0.330875
     39 H19        -3.6450   -4.7790    5.2910 hn        1 MOL      0.330875
     40 H20        -4.8420   -5.1740    4.3060 hn        1 MOL      0.330875
     41 N4         -8.7720   -0.4740   -0.8950 n         1 MOL     -0.556017
     42 C13        -9.9030   -0.2770   -1.7480 c3        1 MOL      0.634862
     43 C14        -9.7610   -0.9830   -3.1290 c         1 MOL      0.260927
     44 O6         -9.4740   -0.4000   -4.1530 o         1 MOL     -0.427274
     45 C15       -10.0330    1.2550   -1.8330 c3        1 MOL     -0.741484
     46 C16        -8.7800    2.0290   -2.1690 c         1 MOL      0.927517
     47 O7         -7.7540    1.4330   -2.5380 o         1 MOL     -0.748375
     48 O8         -8.7650    3.3220   -2.0560 o         1 MOL     -0.748375
     49 H21        -7.9190   -0.7200   -1.3910 hn        1 MOL      0.327600
     50 H22       -10.7720   -0.6870   -1.2360 h1        1 MOL     -0.034189
     51 H23       -10.4950    1.7100   -0.9580 hc        1 MOL      0.166589
     52 H24       -10.7930    1.4930   -2.5670 hc        1 MOL      0.166589
     53 N5        -10.0760   -2.2900   -3.1940 n         1 MOL     -0.420535
     54 C17       -10.3710   -3.1580   -2.1170 c3        1 MOL     -0.037048
     55 C18        -9.1990   -3.7570   -1.2880 c         1 MOL      0.405027
     56 O9         -9.4450   -4.1410   -0.1270 o         1 MOL     -0.583676
     57 H25       -10.1750   -2.7120   -4.1050 hn        1 MOL      0.313951
     58 H26       -10.9300   -4.0410   -2.4190 h1        1 MOL      0.077005
     59 H27       -11.0480   -2.6720   -1.4160 h1        1 MOL      0.077005
     60 N6         -7.9910   -3.8590   -1.7980 n         1 MOL     -0.135865
     61 C19        -6.7640   -4.3160   -1.0860 c3        1 MOL     -0.022487
     62 C20        -5.7140   -3.2190   -1.0830 c         1 MOL      0.341403
     63 O10        -6.0100   -2.1600   -1.6150 o         1 MOL     -0.410313
     64 C21        -6.1970   -5.6560   -1.6780 c3        1 MOL     -0.170609
     65 C22        -6.0360   -5.7380   -3.1570 c         1 MOL      0.674067
     66 O11        -5.8060   -6.8650   -3.6020 o         1 MOL     -0.673779
     67 O12        -6.3850   -4.7970   -3.8890 o         1 MOL     -0.673779
     68 H28        -7.8710   -3.5860   -2.7660 hn        1 MOL      0.217161
     69 H29        -6.9600   -4.5060   -0.0290 h1        1 MOL      0.061451
     70 H30        -6.8620   -6.4210   -1.2690 hc        1 MOL      0.030347
     71 H31        -5.1960   -5.9070   -1.3110 hc        1 MOL      0.030347
     72 N7         -4.4730   -3.5020   -0.5770 n         1 MOL     -0.117489
     73 C23        -3.3670   -2.5690   -0.7460 c3        1 MOL     -0.437362
     74 C24        -2.3110   -2.7210    0.3980 c         1 MOL      0.712463
     75 O13        -2.0580   -3.7830    0.8890 o         1 MOL     -0.589739
     76 H32        -4.2950   -4.2900    0.0340 hn        1 MOL      0.207552
     77 H33        -3.6730   -1.5310   -0.7670 h1        1 MOL      0.167585
     78 H34        -2.8110   -2.7700   -1.6600 h1        1 MOL      0.167585
     79 N8         -1.7700   -1.5680    0.7440 n         1 MOL     -0.606412
     80 C25        -0.7720   -1.3180    1.7510 c3        1 MOL      0.110998
     81 C26         0.2660   -0.3550    1.2220 c         1 MOL      0.636594
     82 O14        -0.1170    0.4650    0.4020 o         1 MOL     -0.530349
     83 C27        -1.4340   -0.6840    2.9770 c3        1 MOL      0.099193
     84 C28        -2.0840    0.6460    2.9630 c3        1 MOL     -0.280192
     85 O15        -2.4000   -1.4660    3.6350 oh        1 MOL     -0.444535
     86 H35        -2.1840   -0.7930    0.2340 hn        1 MOL      0.301724
     87 H36        -0.2490   -2.2110    2.0810 h1        1 MOL      0.066882
     88 H37        -0.6200   -0.6070    3.6880 h1        1 MOL      0.037943
     89 H38        -1.9240   -2.2890    3.8190 ho        1 MOL      0.303784
     90 H39        -1.4110    1.3110    2.4210 hc        1 MOL      0.106244
     91 H40        -2.9930    0.6650    2.3500 hc        1 MOL      0.106244
     92 H41        -2.3620    0.9880    3.9640 hc        1 MOL      0.106244
     93 N9          1.4880   -0.2890    1.7270 n         1 MOL     -0.644613
     94 C29         2.4310    0.8140    1.3980 c3        1 MOL      0.053157
     95 C30         3.6280    0.3200    0.6090 c         1 MOL      0.552935
     96 O16         4.2820    1.0900   -0.1200 o         1 MOL     -0.545269
     97 C31         2.9560    1.3390    2.7450 c3        1 MOL      0.237644
     98 C32         1.8150    1.6650    3.7350 c3        1 MOL      0.137052
     99 C33         3.8290    2.6260    2.5550 c3        1 MOL     -0.429740
    100 C34         2.3570    2.0930    5.1310 c3        1 MOL     -0.378977
    101 H42         1.7690   -0.9470    2.4360 hn        1 MOL      0.314321
    102 H43         1.9210    1.6040    0.8420 h1        1 MOL      0.093070
    103 H44         3.5290    0.5000    3.1460 hc        1 MOL     -0.025713
    104 H45         1.4020    0.6900    3.9480 hc        1 MOL     -0.026797
    105 H46         1.0360    2.2430    3.2370 hc        1 MOL     -0.026797
    106 H47         4.5970    2.5790    1.7880 hc        1 MOL      0.111141
    107 H48         3.1180    3.4300    2.3360 hc        1 MOL      0.111141
    108 H49         4.3090    2.7470    3.5250 hc        1 MOL      0.111141
    109 H50         1.7270    1.5780    5.8610 hc        1 MOL      0.100461
    110 H51         3.4240    1.9280    5.2050 hc        1 MOL      0.100461
    111 H52         2.1120    3.1570    5.2120 hc        1 MOL      0.100461
    112 N10         3.8150   -1.0030    0.6520 n         1 MOL     -0.411346
    113 C35         4.9110   -1.6500   -0.0660 c3        1 MOL      0.012707
    114 C36         5.9420   -2.1900    0.8970 c         1 MOL      0.571165
    115 O17         5.4360   -2.5340    2.0120 o         1 MOL     -0.528627
    116 C37         4.3950   -2.7350   -1.0330 c3        1 MOL      0.354968
    117 C38         3.6840   -2.2380   -2.2730 c3        1 MOL     -0.257821
    118 O18         5.4240   -3.4880   -1.6300 oh        1 MOL     -0.635326
    119 H53         3.2580   -1.5390    1.3100 hn        1 MOL      0.240129
    120 H54         5.4520   -0.9490   -0.7000 h1        1 MOL      0.086926
    121 H55         3.7340   -3.4390   -0.5120 h1        1 MOL     -0.005486
    122 H56         5.0220   -4.2560   -2.0300 ho        1 MOL      0.417439
    123 H57         2.8110   -1.6140   -2.0320 hc        1 MOL      0.068770
    124 H58         4.3960   -1.7270   -2.9250 hc        1 MOL      0.068770
    125 H59         3.2810   -3.1020   -2.7840 hc        1 MOL      0.068770
    126 N11         7.2470   -2.2380    0.5240 n         1 MOL     -0.577337
    127 C39         8.2640   -2.8960    1.3580 c3        1 MOL     -0.029605
    128 C40         9.6450   -2.2970    1.5080 c         1 MOL      0.608711
    129 O19        10.3390   -2.4530    2.4950 o         1 MOL     -0.589072
    130 C41         8.4830   -4.3730    0.9080 c3        1 MOL      0.288005
    131 C42         9.1200   -4.4750   -0.5320 c3        1 MOL     -0.203513
    132 O20         7.2840   -5.1350    0.8940 oh        1 MOL     -0.600219
    133 H60         7.4720   -2.0530   -0.4430 hn        1 MOL      0.384542
    134 H61         7.8710   -2.8750    2.3820 h1        1 MOL      0.095990
    135 H62         9.2000   -4.8200    1.6020 h1        1 MOL      0.002858
    136 H63         7.0310   -5.4490    1.7630 ho        1 MOL      0.398985
    137 H64         9.1790   -5.5340   -0.7980 hc        1 MOL      0.061577
    138 H65         8.5590   -3.9890   -1.3320 hc        1 MOL      0.061577
    139 H66        10.1320   -4.0750   -0.4100 hc        1 MOL      0.061577
    140 N12        10.0820   -1.5230    0.5170 n         1 MOL     -0.281545
    141 C43        11.2690   -0.6060    0.5760 c3        1 MOL     -0.048702
    142 C44        11.0090    0.4770   -0.5150 c         1 MOL      0.365248
    143 O21        10.4160    0.0940   -1.5380 o         1 MOL     -0.491407
    144 C45        12.6650   -1.2450    0.4550 c3        1 MOL     -0.178658
    145 C46        12.8470   -1.9320   -0.8710 c3        1 MOL     -0.062767
    146 C47        14.2080   -2.6530   -0.8930 c3        1 MOL     -0.059695
    147 C48        14.2760   -3.5650   -2.2020 c3        1 MOL      0.044805
    148 N13        15.5670   -4.2760   -2.4220 n4        1 MOL     -0.195895
    149 H67         9.3470   -1.4700   -0.1790 hn        1 MOL      0.159071
    150 H68        11.2890   -0.0940    1.5380 h1        1 MOL      0.095819
    151 H69        12.8790   -1.9750    1.2370 hc        1 MOL      0.101159
    152 H70        13.4320   -0.4990    0.6740 hc        1 MOL      0.101159
    153 H71        12.9030   -1.2060   -1.6910 hc        1 MOL      0.069138
    154 H72        12.0090   -2.5980   -1.0960 hc        1 MOL      0.069138
    155 H73        14.2460   -3.2270    0.0330 hc        1 MOL      0.044561
    156 H74        15.0200   -1.9340   -0.8850 hc        1 MOL      0.044561
    157 H75        14.2000   -2.8880   -3.0550 hx        1 MOL      0.062515
    158 H76        13.4400   -4.2600   -2.1740 hx        1 MOL      0.062515
    159 H77        15.5880   -4.6550   -3.3520 hn        1 MOL      0.228449
    160 H78        16.3160   -3.6440   -2.1670 hn        1 MOL      0.228449
    161 H79        15.5610   -5.0780   -1.8100 hn        1 MOL      0.228449
    162 N14        11.4280    1.7240   -0.3120 n         1 MOL     -0.359619
    163 C49        11.1360    2.7340   -1.3000 c3        1 MOL      0.143462
    164 C50         9.6200    3.0360   -1.5530 c         1 MOL      0.397048
    165 O22         9.2480    3.4190   -2.6430 o         1 MOL     -0.519784
    166 C51        12.0210    3.9540   -0.9700 c3        1 MOL      0.086500
    167 C52        12.3690    4.8020   -2.2310 c3        1 MOL     -0.170011
    168 C53        13.2810    6.0220   -1.9650 c         1 MOL      0.696305
    169 O23        14.3700    6.1260   -2.5710 o         1 MOL     -0.646774
    170 O24        12.8960    6.8760   -1.1590 o         1 MOL     -0.646774
    171 H80        11.9970    1.8990    0.5120 hn        1 MOL      0.268602
    172 H81        11.5230    2.3310   -2.2390 h1        1 MOL      0.052979
    173 H82        12.9910    3.6060   -0.6180 hc        1 MOL     -0.020078
    174 H83        11.5400    4.5720   -0.2110 hc        1 MOL     -0.020078
    175 H84        11.4640    5.1070   -2.7500 hc        1 MOL      0.027164
    176 H85        12.8450    4.1700   -2.9810 hc        1 MOL      0.027164
    177 N15         8.8250    3.1300   -0.5310 n         1 MOL     -0.287975
    178 C54         9.1330    3.3790    0.9060 c3        1 MOL      0.081148
    179 H86         8.9130    4.4180    1.1490 h1        1 MOL      0.018092
    180 H87         8.5220    2.7240    1.5290 h1        1 MOL      0.018092
    181 H88        10.1880    3.1780    1.0930 h1        1 MOL      0.018092
    182 H89         7.8400    3.1730   -0.7370 hn        1 MOL      0.265638
    183 Ca1        -6.1790    3.6210   -1.6720 Ca        1 MOL      1.686978
    184 O25        -4.0520    5.1000   -3.2690 oh        1 MOL     -0.807076
    185 H90        -4.0200    4.6390   -4.1060 ho        1 MOL      0.397883
    186 H91        -3.2970    5.7040   -3.2970 ho        1 MOL      0.397883
    187 O26        -3.8920    4.2440   -0.1990 oh        1 MOL     -0.807076
    188 H92        -3.6060    5.1390   -0.0670 ho        1 MOL      0.397883
    189 H93        -3.1190    3.7040   -0.0450 ho        1 MOL      0.397883
    190 O27        -6.6020    5.9190   -3.1020 oh        1 MOL     -0.807076
    191 H94        -6.3010    5.9620   -4.0090 ho        1 MOL      0.397883
    192 H95        -6.3070    6.7450   -2.7080 ho        1 MOL      0.397883
    193 O28        -6.2490    3.1960   -4.3380 oh        1 MOL     -0.807076
    194 H96        -6.8120    2.7250   -4.9540 ho        1 MOL      0.397883
    195 H97        -5.4770    3.4250   -4.8430 ho        1 MOL      0.397883
    196 O29        -4.6060    1.5150   -2.0450 oh        1 MOL     -0.807076
    197 H98        -3.6910    1.7900   -2.0810 ho        1 MOL      0.397883
    198 H99        -4.6120    0.6410   -2.4200 ho        1 MOL      0.397883
@<TRIPOS>BOND
     1    1    2 1   
     2    1    4 1   
     3    1    5 1   
     4    1    6 1   
     5    2    3 2   
     6    2    7 1   
     7    7    8 1   
     8    7   15 1   
     9    8    9 1   
    10    8   11 1   
    11    8   16 1   
    12    9   10 2   
    13    9   19 1   
    14   11   12 1   
    15   11   17 1   
    16   11   18 1   
    17   12   13 1   
    18   12   14 1   
    19   19   20 1   
    20   19   28 1   
    21   20   21 1   
    22   20   23 1   
    23   20   29 1   
    24   21   22 2   
    25   21   41 1   
    26   23   24 1   
    27   23   30 1   
    28   23   31 1   
    29   24   25 1   
    30   24   32 1   
    31   24   33 1   
    32   25   26 1   
    33   25   34 1   
    34   25   35 1   
    35   26   27 1   
    36   26   36 1   
    37   26   37 1   
    38   27   38 1   
    39   27   39 1   
    40   27   40 1   
    41   41   42 1   
    42   41   49 1   
    43   42   43 1   
    44   42   45 1   
    45   42   50 1   
    46   43   44 2   
    47   43   53 1   
    48   45   46 1   
    49   45   51 1   
    50   45   52 1   
    51   46   47 1   
    52   46   48 1   
    53   53   54 1   
    54   53   57 1   
    55   54   55 1   
    56   54   58 1   
    57   54   59 1   
    58   55   56 2   
    59   55   60 1   
    60   60   61 1   
    61   60   68 1   
    62   61   62 1   
    63   61   64 1   
    64   61   69 1   
    65   62   63 2   
    66   62   72 1   
    67   64   65 1   
    68   64   70 1   
    69   64   71 1   
    70   65   66 1   
    71   65   67 1   
    72   72   73 1   
    73   72   76 1   
    74   73   74 1   
    75   73   77 1   
    76   73   78 1   
    77   74   75 2   
    78   74   79 1   
    79   79   80 1   
    80   79   86 1   
    81   80   81 1   
    82   80   83 1   
    83   80   87 1   
    84   81   82 2   
    85   81   93 1   
    86   83   84 1   
    87   83   85 1   
    88   83   88 1   
    89   84   90 1   
    90   84   91 1   
    91   84   92 1   
    92   85   89 1   
    93   93   94 1   
    94   93  101 1   
    95   94   95 1   
    96   94   97 1   
    97   94  102 1   
    98   95   96 2   
    99   95  112 1   
   100   97   98 1   
   101   97   99 1   
   102   97  103 1   
   103   98  100 1   
   104   98  104 1   
   105   98  105 1   
   106   99  106 1   
   107   99  107 1   
   108   99  108 1   
   109  100  109 1   
   110  100  110 1   
   111  100  111 1   
   112  112  113 1   
   113  112  119 1   
   114  113  114 1   
   115  113  116 1   
   116  113  120 1   
   117  114  115 2   
   118  114  126 1   
   119  116  117 1   
   120  116  118 1   
   121  116  121 1   
   122  117  123 1   
   123  117  124 1   
   124  117  125 1   
   125  118  122 1   
   126  126  127 1   
   127  126  133 1   
   128  127  128 1   
   129  127  130 1   
   130  127  134 1   
   131  128  129 2   
   132  128  140 1   
   133  130  131 1   
   134  130  132 1   
   135  130  135 1   
   136  131  137 1   
   137  131  138 1   
   138  131  139 1   
   139  132  136 1   
   140  140  141 1   
   141  140  149 1   
   142  141  142 1   
   143  141  144 1   
   144  141  150 1   
   145  142  143 2   
   146  142  162 1   
   147  144  145 1   
   148  144  151 1   
   149  144  152 1   
   150  145  146 1   
   151  145  153 1   
   152  145  154 1   
   153  146  147 1   
   154  146  155 1   
   155  146  156 1   
   156  147  148 1   
   157  147  157 1   
   158  147  158 1   
   159  148  159 1   
   160  148  160 1   
   161  148  161 1   
   162  162  163 1   
   163  162  171 1   
   164  163  164 1   
   165  163  166 1   
   166  163  172 1   
   167  164  165 2   
   168  164  177 1   
   169  166  167 1   
   170  166  173 1   
   171  166  174 1   
   172  167  168 1   
   173  167  175 1   
   174  167  176 1   
   175  168  169 1   
   176  168  170 1   
   177  177  178 1   
   178  177  182 1   
   179  178  179 1   
   180  178  180 1   
   181  178  181 1   
   182  184  185 1   
   183  184  186 1   
   184  187  188 1   
   185  187  189 1   
   186  190  191 1   
   187  190  192 1   
   188  193  194 1   
   189  193  195 1   
   190  196  197 1   
   191  196  198 1   
@<TRIPOS>SUBSTRUCTURE
     1 MOL         1 TEMP              0 ****  ****    0 ROOT
