@<TRIPOS>MOLECULE
MOL
  189   185     1     0     0
SMALL
resp


@<TRIPOS>ATOM
      1 C1          4.7390    3.6490   -3.6960 c3        1 MOL     -0.248117
      2 C2          5.5370    2.9870   -2.5230 c         1 MOL      0.814496
      3 O1          4.8650    2.7770   -1.5050 o         1 MOL     -0.657718
      4 H1          4.1690    2.8840   -4.2240 hc        1 MOL      0.052035
      5 H2          4.0570    4.3970   -3.2940 hc        1 MOL      0.052035
      6 H3          5.4360    4.1240   -4.3860 hc        1 MOL      0.052035
      7 N1          6.7810    2.6040   -2.6720 n         1 MOL     -0.827045
      8 C3          7.4360    1.4530   -1.9340 c3        1 MOL      0.342056
      9 C4          6.3730    0.3450   -1.6450 c         1 MOL      0.377584
     10 O2          5.8350    0.2090   -0.5340 o         1 MOL     -0.593409
     11 C5          8.0480    1.9380   -0.6060 c3        1 MOL     -0.252707
     12 C6          7.4660    3.2290    0.0860 c         1 MOL      0.808081
     13 O3          6.6060    3.0980    1.0040 o         1 MOL     -0.750687
     14 O4          8.0040    4.3800   -0.1490 o         1 MOL     -0.750687
     15 H4          7.3940    3.0700   -3.3290 hn        1 MOL      0.371052
     16 H5          8.2810    1.0450   -2.4920 h1        1 MOL      0.040314
     17 H6          9.1080    2.0240   -0.8100 hc        1 MOL      0.047286
     18 H7          8.0840    1.1330    0.1220 hc        1 MOL      0.047286
     19 N2          6.0070   -0.3710   -2.7010 n         1 MOL     -0.540247
     20 C7          5.2380   -1.6250   -2.7330 c3        1 MOL      0.376010
     21 C8          5.7930   -2.7440   -1.8520 c         1 MOL      0.099293
     22 O5          6.2280   -3.7760   -2.3860 o         1 MOL     -0.540564
     23 C9          3.6730   -1.4640   -2.6580 c3        1 MOL      0.042826
     24 C10         2.9260   -2.8080   -3.0010 c3        1 MOL     -0.097745
     25 C11         3.1920   -0.2210   -3.3910 c3        1 MOL     -0.181491
     26 C12         2.9210   -3.2310   -4.4690 c3        1 MOL     -0.144263
     27 H8          6.1770    0.0060   -3.6150 hn        1 MOL      0.269496
     28 H9          5.3850   -1.9890   -3.7470 h1        1 MOL      0.015157
     29 H10         3.4510   -1.2390   -1.6130 hc        1 MOL     -0.008985
     30 H11         1.9100   -2.9260   -2.6020 hc        1 MOL      0.099566
     31 H12         3.4380   -3.6550   -2.5490 hc        1 MOL      0.099566
     32 H13         2.1200   -0.1350   -3.5630 hc        1 MOL      0.046157
     33 H14         3.5350    0.6420   -2.8240 hc        1 MOL      0.046157
     34 H15         3.4930   -0.3870   -4.4270 hc        1 MOL      0.046157
     35 H16         3.9590   -3.3720   -4.7760 hc        1 MOL      0.013280
     36 H17         2.2900   -4.0940   -4.6870 hc        1 MOL      0.013280
     37 H18         2.6350   -2.3730   -5.0640 hc        1 MOL      0.013280
     38 N3          5.9330   -2.6000   -0.5440 n         1 MOL      0.296871
     39 C13         6.5760   -3.6430    0.3420 c3        1 MOL     -0.021390
     40 C14         5.7470   -4.9060    0.6520 c         1 MOL      0.529909
     41 O6          6.1930   -6.0440    0.4160 o         1 MOL     -0.569801
     42 C15         7.0280   -2.8520    1.5920 c3        1 MOL     -0.228798
     43 C16         7.9610   -1.7210    1.2840 c         1 MOL      0.824895
     44 O7          8.3060   -0.9600    2.2440 o         1 MOL     -0.732108
     45 O8          8.6570   -1.7470    0.2310 o         1 MOL     -0.732108
     46 H19         5.7320   -1.7220   -0.0880 hn        1 MOL      0.087175
     47 H20         7.4510   -3.9920   -0.2050 h1        1 MOL      0.050768
     48 H21         7.5720   -3.5120    2.2710 hc        1 MOL      0.045042
     49 H22         6.1540   -2.5320    2.1540 hc        1 MOL      0.045042
     50 N4          4.4220   -4.8910    1.0010 n         1 MOL     -0.518550
     51 C17         3.5700   -3.7580    0.9060 c3        1 MOL      0.175663
     52 C18         2.2500   -4.0860    1.6010 c         1 MOL      0.516052
     53 O9          1.6770   -5.1450    1.4040 o         1 MOL     -0.565134
     54 H23         3.8990   -5.7440    1.1090 hn        1 MOL      0.301784
     55 H24         3.3320   -3.4970   -0.1320 h1        1 MOL     -0.030416
     56 H25         4.0020   -2.8710    1.3710 h1        1 MOL     -0.030416
     57 N5          1.7090   -3.2680    2.5280 n         1 MOL     -0.494547
     58 C19         2.1380   -1.9400    2.9120 c3        1 MOL      0.301248
     59 C20         2.3830   -0.9770    1.7160 c         1 MOL      0.150484
     60 O10         3.5330   -0.5410    1.4660 o         1 MOL     -0.507767
     61 C21         3.3390   -2.0470    3.9290 c3        1 MOL     -0.407942
     62 C22         3.7130   -0.7270    4.6310 c         1 MOL      0.751657
     63 O11         4.9160   -0.4230    4.9540 o         1 MOL     -0.684300
     64 O12         2.8000    0.1250    4.8370 o         1 MOL     -0.684300
     65 H26         0.8150   -3.5780    2.8830 hn        1 MOL      0.283206
     66 H27         1.3060   -1.4250    3.3940 h1        1 MOL      0.036363
     67 H28         4.1840   -2.4330    3.3670 hc        1 MOL      0.103330
     68 H29         3.1260   -2.8180    4.6710 hc        1 MOL      0.103330
     69 N6          1.3590   -0.4590    1.0280 n         1 MOL     -0.192629
     70 C23        -0.0660   -0.8180    1.1850 c3        1 MOL      0.063635
     71 C24        -0.4100   -2.1070    0.5100 c         1 MOL      0.589193
     72 O13         0.3750   -2.6140   -0.3300 o         1 MOL     -0.544055
     73 H30         1.5470    0.1440    0.2420 hn        1 MOL      0.199668
     74 H31        -0.6290   -0.0230    0.6860 h1        1 MOL      0.024577
     75 H32        -0.2870   -0.7610    2.2530 h1        1 MOL      0.024577
     76 N7         -1.5140   -2.6390    0.9730 n         1 MOL     -0.573200
     77 C25        -1.9500   -3.9910    0.4840 c3        1 MOL      0.293377
     78 C26        -2.4100   -4.0130   -1.0130 c         1 MOL      0.344324
     79 O14        -2.4340   -5.0350   -1.6210 o         1 MOL     -0.482815
     80 C27        -2.9430   -4.6080    1.4980 c3        1 MOL     -0.242522
     81 C28        -4.4040   -4.0590    1.2360 c3        1 MOL     -0.059914
     82 C29        -5.4770   -4.6690    2.1640 c         1 MOL      0.579188
     83 N8         -6.6540   -4.8710    1.6140 n         1 MOL     -0.677318
     84 O15        -5.2750   -4.8530    3.3650 o         1 MOL     -0.565462
     85 H33        -2.0400   -2.1690    1.7060 hn        1 MOL      0.293357
     86 H34        -1.0990   -4.6760    0.5180 h1        1 MOL      0.054691
     87 H35        -2.5990   -4.4130    2.5130 hc        1 MOL      0.090263
     88 H36        -2.9660   -5.6730    1.2520 hc        1 MOL      0.090263
     89 H37        -4.7580   -4.3890    0.2560 hc        1 MOL      0.032518
     90 H38        -4.4830   -2.9790    1.2610 hc        1 MOL      0.032518
     91 H39        -6.7810   -4.6150    0.6460 hn        1 MOL      0.327588
     92 H40        -7.3070   -5.4150    2.1660 hn        1 MOL      0.327588
     93 N9         -2.8590   -2.8260   -1.4740 n         1 MOL     -0.133961
     94 C30        -3.2350   -2.5600   -2.9050 c3        1 MOL     -0.300676
     95 C31        -4.5800   -1.7360   -3.1250 c         1 MOL      0.543670
     96 O16        -4.9050   -1.3740   -4.2920 o         1 MOL     -0.538379
     97 C32        -2.1230   -1.9240   -3.7100 c3        1 MOL      0.327330
     98 C33        -0.8860   -2.7930   -3.7900 c3        1 MOL     -0.329379
     99 C34        -1.7490   -0.5380   -3.2740 c3        1 MOL     -0.329379
    100 H41        -2.6430   -2.0580   -0.8560 hn        1 MOL      0.202156
    101 H42        -3.5090   -3.4540   -3.4670 h1        1 MOL      0.142363
    102 H43        -2.5400   -1.8450   -4.7170 hc        1 MOL     -0.016887
    103 H44        -0.3610   -2.7020   -2.8470 hc        1 MOL      0.085258
    104 H45        -1.1450   -3.8230   -4.0610 hc        1 MOL      0.085258
    105 H46        -0.3080   -2.3150   -4.5870 hc        1 MOL      0.085258
    106 H47        -1.5700   -0.5220   -2.2010 hc        1 MOL      0.085258
    107 H48        -0.8090   -0.1480   -3.6400 hc        1 MOL      0.085258
    108 H49        -2.5420    0.1550   -3.5600 hc        1 MOL      0.085258
    109 N10        -5.3330   -1.5060   -2.0400 n         1 MOL     -0.365331
    110 C35        -6.5550   -0.7570   -2.1070 c3        1 MOL      0.075473
    111 C36        -6.5510    0.6270   -1.4050 c         1 MOL      0.504434
    112 O17        -7.4870    1.3540   -1.6950 o         1 MOL     -0.542196
    113 C37        -7.5550   -1.5970   -1.2610 c3        1 MOL     -0.221601
    114 C38        -7.8970   -3.0170   -1.6850 c         1 MOL      0.652050
    115 N11        -8.2220   -3.0890   -2.9150 n         1 MOL     -0.758829
    116 O18        -7.7140   -4.0080   -1.0120 o         1 MOL     -0.565253
    117 H50        -4.9350   -1.7960   -1.1520 hn        1 MOL      0.169975
    118 H51        -6.9430   -0.6700   -3.1170 h1        1 MOL      0.072750
    119 H52        -8.4740   -1.0340   -1.1460 hc        1 MOL      0.083757
    120 H53        -7.1030   -1.7610   -0.2810 hc        1 MOL      0.083757
    121 H54        -8.2920   -2.2720   -3.4960 hn        1 MOL      0.364094
    122 H55        -8.3110   -3.9900   -3.3750 hn        1 MOL      0.364094
    123 N12        -5.6310    0.9920   -0.5320 n         1 MOL     -0.376110
    124 C39        -5.6980    2.1950    0.3180 c3        1 MOL      0.033156
    125 C40        -4.3860    2.8160    0.6910 c         1 MOL      0.576628
    126 O19        -3.3270    2.2190    0.4140 o         1 MOL     -0.497657
    127 C41        -6.3270    1.7620    1.6140 c3        1 MOL     -0.045393
    128 C42        -7.6050    0.9220    1.5550 ca        1 MOL     -0.050806
    129 C43        -8.8000    1.4800    1.0990 ca        1 MOL     -0.073655
    130 C44        -7.5070   -0.4600    1.9420 ca        1 MOL     -0.073655
    131 C45        -9.9560    0.7040    1.1180 ca        1 MOL     -0.323552
    132 C46        -8.6930   -1.1700    2.1010 ca        1 MOL     -0.323552
    133 C47        -9.9150   -0.6200    1.7150 ca        1 MOL      0.399562
    134 O20       -11.0850   -1.3330    1.8220 oh        1 MOL     -0.527052
    135 H56        -4.8610    0.3800   -0.2790 hn        1 MOL      0.234875
    136 H57        -6.3750    2.9280   -0.1180 h1        1 MOL      0.056424
    137 H58        -6.5020    2.6470    2.2230 hc        1 MOL      0.055966
    138 H59        -5.5150    1.2210    2.1160 hc        1 MOL      0.055966
    139 H60        -8.8330    2.5130    0.7720 ha        1 MOL      0.126726
    140 H61        -6.5600   -0.9490    2.1610 ha        1 MOL      0.126726
    141 H62       -10.8330    1.1900    0.6990 ha        1 MOL      0.153842
    142 H63        -8.6270   -2.1280    2.5800 ha        1 MOL      0.153842
    143 H64       -11.8920   -0.9080    1.5230 ho        1 MOL      0.370822
    144 N13        -4.4210    4.0930    1.1480 n         1 MOL     -0.513205
    145 C48        -3.3080    5.0110    1.2960 c3        1 MOL     -0.026951
    146 C49        -2.3990    5.2440    0.0840 c         1 MOL      0.481656
    147 O21        -1.7610    6.3060    0.0270 o         1 MOL     -0.538991
    148 C50        -2.4850    4.5850    2.5360 c3        1 MOL      0.108820
    149 C51        -3.3770    4.6210    3.8030 c3        1 MOL     -0.127520
    150 C52        -2.5010    4.5330    4.9490 c         1 MOL      0.638423
    151 O22        -2.2100    5.6230    5.5220 o         1 MOL     -0.716575
    152 O23        -1.9230    3.4330    5.2150 o         1 MOL     -0.716575
    153 H65        -5.3320    4.4890    0.9800 hn        1 MOL      0.298738
    154 H66        -3.6960    6.0110    1.4890 h1        1 MOL      0.087706
    155 H67        -1.7150    5.3540    2.6230 hc        1 MOL      0.059502
    156 H68        -2.0520    3.6040    2.3300 hc        1 MOL      0.059502
    157 H69        -4.1470    3.8600    3.9280 hc        1 MOL     -0.021933
    158 H70        -3.7790    5.6320    3.8790 hc        1 MOL     -0.021933
    159 N14        -2.3340    4.3790   -0.9330 n         1 MOL     -0.413960
    160 C53        -1.2680    4.3400   -1.8470 c3        1 MOL      0.035540
    161 C54        -1.6290    4.9490   -3.2200 c         1 MOL      0.441366
    162 O24        -0.7100    5.0600   -3.9850 o         1 MOL     -0.539519
    163 C55        -0.7370    2.8440   -1.9850 c3        1 MOL     -0.135422
    164 C56        -0.1150    2.3100   -0.7020 c3        1 MOL      0.328546
    165 C57         1.3430    2.6790   -0.3750 c         1 MOL      0.580089
    166 O25         1.5810    3.9080   -0.0980 o         1 MOL     -0.634189
    167 O26         2.1590    1.7710   -0.2260 o         1 MOL     -0.634189
    168 H71        -2.8410    3.5080   -0.8190 hn        1 MOL      0.179999
    169 H72        -0.4150    4.9210   -1.4960 h1        1 MOL      0.139788
    170 H73        -0.0380    2.7390   -2.8050 hc        1 MOL      0.032568
    171 H74        -1.5620    2.2430   -2.3590 hc        1 MOL      0.032568
    172 H75        -0.1730    1.2280   -0.8500 hc        1 MOL     -0.128795
    173 H76        -0.7650    2.5830    0.1280 hc        1 MOL     -0.128795
    174 N15        -2.7790    5.5340   -3.4450 n         1 MOL     -0.246254
    175 C58        -3.1870    6.3130   -4.6410 c3        1 MOL     -0.054829
    176 H77        -3.9880    5.7880   -5.1590 h1        1 MOL      0.051275
    177 H78        -3.5390    7.2970   -4.3300 h1        1 MOL      0.051275
    178 H79        -2.3340    6.4260   -5.3100 h1        1 MOL      0.051275
    179 H80        -3.4470    5.5520   -2.6950 hn        1 MOL      0.204203
    180 Ca1         4.3350    1.9190    0.9620 Ca        1 MOL      1.814195
    181 O27         3.0120    2.2610    3.2170 oh        1 MOL     -0.897406
    182 H81         2.9690    1.5150    3.8080 ho        1 MOL      0.425110
    183 H82         2.2410    2.7780    3.4360 ho        1 MOL      0.425110
    184 O28         5.8030    0.7800    2.8730 oh        1 MOL     -0.897406
    185 H83         6.6250    0.3070    2.7470 ho        1 MOL      0.425110
    186 H84         5.4440    0.4370    3.6930 ho        1 MOL      0.425110
    187 O29         4.1280    4.6310    0.9800 oh        1 MOL     -0.897406
    188 H85         4.7200    5.3410    0.7020 ho        1 MOL      0.425110
    189 H86         3.2570    4.9640    0.7910 ho        1 MOL      0.425110
@<TRIPOS>BOND
     1    1    2 1   
     2    1    4 1   
     3    1    5 1   
     4    1    6 1   
     5    2    3 2   
     6    2    7 1   
     7    7    8 1   
     8    7   15 1   
     9    8    9 1   
    10    8   11 1   
    11    8   16 1   
    12    9   10 2   
    13    9   19 1   
    14   11   12 1   
    15   11   17 1   
    16   11   18 1   
    17   12   13 1   
    18   12   14 1   
    19   19   20 1   
    20   19   27 1   
    21   20   21 1   
    22   20   23 1   
    23   20   28 1   
    24   21   22 2   
    25   21   38 1   
    26   23   24 1   
    27   23   25 1   
    28   23   29 1   
    29   24   26 1   
    30   24   30 1   
    31   24   31 1   
    32   25   32 1   
    33   25   33 1   
    34   25   34 1   
    35   26   35 1   
    36   26   36 1   
    37   26   37 1   
    38   38   39 1   
    39   38   46 1   
    40   39   40 1   
    41   39   42 1   
    42   39   47 1   
    43   40   41 2   
    44   40   50 1   
    45   42   43 1   
    46   42   48 1   
    47   42   49 1   
    48   43   44 1   
    49   43   45 1   
    50   50   51 1   
    51   50   54 1   
    52   51   52 1   
    53   51   55 1   
    54   51   56 1   
    55   52   53 2   
    56   52   57 1   
    57   57   58 1   
    58   57   65 1   
    59   58   59 1   
    60   58   61 1   
    61   58   66 1   
    62   59   60 2   
    63   59   69 1   
    64   61   62 1   
    65   61   67 1   
    66   61   68 1   
    67   62   63 1   
    68   62   64 1   
    69   69   70 1   
    70   69   73 1   
    71   70   71 1   
    72   70   74 1   
    73   70   75 1   
    74   71   72 2   
    75   71   76 1   
    76   76   77 1   
    77   76   85 1   
    78   77   78 1   
    79   77   80 1   
    80   77   86 1   
    81   78   79 2   
    82   78   93 1   
    83   80   81 1   
    84   80   87 1   
    85   80   88 1   
    86   81   82 1   
    87   81   89 1   
    88   81   90 1   
    89   82   83 1   
    90   82   84 2   
    91   83   91 1   
    92   83   92 1   
    93   93   94 1   
    94   93  100 1   
    95   94   95 1   
    96   94   97 1   
    97   94  101 1   
    98   95   96 2   
    99   95  109 1   
   100   97   98 1   
   101   97   99 1   
   102   97  102 1   
   103   98  103 1   
   104   98  104 1   
   105   98  105 1   
   106   99  106 1   
   107   99  107 1   
   108   99  108 1   
   109  109  110 1   
   110  109  117 1   
   111  110  111 1   
   112  110  113 1   
   113  110  118 1   
   114  111  112 2   
   115  111  123 1   
   116  113  114 1   
   117  113  119 1   
   118  113  120 1   
   119  114  115 1   
   120  114  116 2   
   121  115  121 1   
   122  115  122 1   
   123  123  124 1   
   124  123  135 1   
   125  124  125 1   
   126  124  127 1   
   127  124  136 1   
   128  125  126 2   
   129  125  144 1   
   130  127  128 1   
   131  127  137 1   
   132  127  138 1   
   133  128  129 ar  
   134  128  130 ar  
   135  129  131 ar  
   136  129  139 1   
   137  130  132 ar  
   138  130  140 1   
   139  131  133 ar  
   140  131  141 1   
   141  132  133 ar  
   142  132  142 1   
   143  133  134 1   
   144  134  143 1   
   145  144  145 1   
   146  144  153 1   
   147  145  146 1   
   148  145  148 1   
   149  145  154 1   
   150  146  147 2   
   151  146  159 1   
   152  148  149 1   
   153  148  155 1   
   154  148  156 1   
   155  149  150 1   
   156  149  157 1   
   157  149  158 1   
   158  150  151 1   
   159  150  152 1   
   160  159  160 1   
   161  159  168 1   
   162  160  161 1   
   163  160  163 1   
   164  160  169 1   
   165  161  162 2   
   166  161  174 1   
   167  163  164 1   
   168  163  170 1   
   169  163  171 1   
   170  164  165 1   
   171  164  172 1   
   172  164  173 1   
   173  165  166 1   
   174  165  167 1   
   175  174  175 1   
   176  174  179 1   
   177  175  176 1   
   178  175  177 1   
   179  175  178 1   
   180  181  182 1   
   181  181  183 1   
   182  184  185 1   
   183  184  186 1   
   184  187  188 1   
   185  187  189 1   
@<TRIPOS>SUBSTRUCTURE
     1 MOL         1 TEMP              0 ****  ****    0 ROOT
