@<TRIPOS>MOLECULE
MOL
  189   185     1     0     0
SMALL
resp


@<TRIPOS>ATOM
      1 C1         -5.1790   -4.1440   -3.6250 c3        1 MOL     -0.453505
      2 C2         -5.7160   -3.3410   -2.4790 c         1 MOL      0.815041
      3 O1         -4.9570   -3.0900   -1.5390 o         1 MOL     -0.636273
      4 H1         -4.0910   -4.0880   -3.6280 hc        1 MOL      0.111923
      5 H2         -5.4890   -5.1840   -3.5190 hc        1 MOL      0.111923
      6 H3         -5.5660   -3.7440   -4.5620 hc        1 MOL      0.111923
      7 N1         -6.9950   -2.8580   -2.5500 n         1 MOL     -0.720424
      8 C3         -7.5930   -1.8520   -1.7440 c3        1 MOL      0.384109
      9 C4         -6.5380   -0.6800   -1.5240 c         1 MOL      0.052090
     10 O2         -6.0020   -0.5230   -0.4370 o         1 MOL     -0.119252
     11 C5         -8.3400   -2.4290   -0.4500 c3        1 MOL     -0.358531
     12 C6         -7.5190   -3.4950    0.2610 c         1 MOL      0.867100
     13 O3         -6.6420   -3.0980    1.0260 o         1 MOL     -0.755172
     14 O4         -7.7850   -4.7250    0.1660 o         1 MOL     -0.755172
     15 H4         -7.4970   -3.0480   -3.4050 hn        1 MOL      0.332798
     16 H5         -8.3030   -1.4270   -2.4450 h1        1 MOL      0.007798
     17 H6         -9.2510   -2.8800   -0.8480 hc        1 MOL      0.061178
     18 H7         -8.5590   -1.6120    0.2340 hc        1 MOL      0.061178
     19 N2         -6.1460    0.0180   -2.6060 n         1 MOL     -0.367967
     20 C7         -5.1660    1.1600   -2.6480 c3        1 MOL      0.105314
     21 C8         -5.6270    2.5030   -2.0960 c         1 MOL      0.464898
     22 O5         -5.6390    3.5090   -2.7610 o         1 MOL     -0.570386
     23 C9         -3.7050    0.8710   -2.3900 c3        1 MOL      0.149667
     24 C10        -2.6510    1.9500   -2.4920 c3        1 MOL      0.113419
     25 C11        -3.2790   -0.4490   -3.1890 c3        1 MOL     -0.348597
     26 C12        -2.3440    2.4480   -3.8890 c3        1 MOL     -0.503486
     27 H8         -6.5300   -0.3050   -3.4810 hn        1 MOL      0.281756
     28 H9         -5.1530    1.4390   -3.6950 h1        1 MOL     -0.009215
     29 H10        -3.6890    0.5160   -1.3600 hc        1 MOL     -0.181062
     30 H11        -1.7280    1.5730   -2.0390 hc        1 MOL      0.045909
     31 H12        -2.8960    2.7820   -1.8360 hc        1 MOL      0.045909
     32 H13        -3.1360   -0.2440   -4.2530 hc        1 MOL      0.082862
     33 H14        -2.2550   -0.7260   -2.9470 hc        1 MOL      0.082862
     34 H15        -4.0600   -1.1550   -2.9240 hc        1 MOL      0.082862
     35 H16        -1.7640    3.3680   -3.8770 hc        1 MOL      0.116750
     36 H17        -1.9130    1.5990   -4.4200 hc        1 MOL      0.116750
     37 H18        -3.2460    2.8620   -4.3550 hc        1 MOL      0.116750
     38 N3         -6.1230    2.5120   -0.8590 n         1 MOL     -0.153600
     39 C13        -6.8620    3.5460   -0.1640 c3        1 MOL      0.031662
     40 C14        -5.9640    4.7130    0.1980 c         1 MOL      0.637052
     41 O6         -6.4310    5.8100    0.1000 o         1 MOL     -0.589629
     42 C15        -7.4020    2.9620    1.1350 c3        1 MOL     -0.293610
     43 C16        -8.2420    1.6280    0.9090 c         1 MOL      0.785680
     44 O7         -8.1360    0.7320    1.7310 o         1 MOL     -0.721478
     45 O8         -9.1860    1.6220    0.0490 o         1 MOL     -0.721478
     46 H19        -6.2260    1.5750   -0.4810 hn        1 MOL      0.091478
     47 H20        -7.7080    3.8120   -0.8050 h1        1 MOL      0.044096
     48 H21        -8.0820    3.7190    1.5100 hc        1 MOL      0.095650
     49 H22        -6.7010    2.7500    1.9340 hc        1 MOL      0.095650
     50 N4         -4.7520    4.6340    0.8550 n         1 MOL     -0.658066
     51 C17        -3.9380    3.4730    1.3220 c3        1 MOL      0.317910
     52 C18        -4.0660    3.1530    2.8210 c         1 MOL      0.418521
     53 O9         -4.9750    3.7020    3.4410 o         1 MOL     -0.559928
     54 H23        -4.4170    5.5200    1.1800 hn        1 MOL      0.314540
     55 H24        -2.9000    3.7740    1.1420 h1        1 MOL     -0.006852
     56 H25        -4.1800    2.5660    0.7830 h1        1 MOL     -0.006852
     57 N5         -3.3890    2.1780    3.3800 n         1 MOL     -0.430651
     58 C19        -2.1720    1.5270    2.9310 c3        1 MOL      0.174553
     59 C20        -2.2520    0.9070    1.5280 c         1 MOL      0.009142
     60 O10        -3.3040    0.3910    1.1010 o         1 MOL     -0.392544
     61 C21        -1.6280    0.4550    3.8640 c3        1 MOL     -0.145099
     62 C22        -2.6410   -0.6860    4.1260 c         1 MOL      0.702485
     63 O11        -3.2830   -0.6770    5.2370 o         1 MOL     -0.695220
     64 O12        -2.8480   -1.5710    3.2400 o         1 MOL     -0.695220
     65 H26        -3.7930    1.9760    4.2780 hn        1 MOL      0.320994
     66 H27        -1.3750    2.2660    2.8290 h1        1 MOL     -0.007672
     67 H28        -1.4070    0.8250    4.8690 hc        1 MOL      0.029547
     68 H29        -0.7280    0.0350    3.4100 hc        1 MOL      0.029547
     69 N6         -1.1610    0.8850    0.8070 n         1 MOL     -0.055899
     70 C23         0.1840    1.4570    0.9210 c3        1 MOL      0.030947
     71 C24         0.3860    2.8970    0.4500 c         1 MOL      0.591103
     72 O13        -0.5130    3.4560   -0.1460 o         1 MOL     -0.544176
     73 H30        -1.3750    0.1800    0.1110 hn        1 MOL      0.223426
     74 H31         0.9610    0.8360    0.4780 h1        1 MOL      0.022865
     75 H32         0.4320    1.4550    1.9800 h1        1 MOL      0.022865
     76 N7          1.5600    3.4780    0.6090 n         1 MOL     -0.489841
     77 C25         1.9360    4.7080   -0.0540 c3        1 MOL      0.131571
     78 C26         2.5210    4.5740   -1.4230 c         1 MOL      0.399992
     79 O14         2.5080    5.6120   -2.1220 o         1 MOL     -0.510356
     80 C27         2.9170    5.4990    0.8630 c3        1 MOL     -0.112884
     81 C28         2.3520    5.9760    2.1980 c3        1 MOL     -0.135047
     82 C29         3.1010    7.1750    2.7750 c         1 MOL      0.637794
     83 N8          2.6880    7.5560    3.9930 n         1 MOL     -0.816714
     84 O15         4.1080    7.6830    2.2830 o         1 MOL     -0.534806
     85 H33         2.3260    2.9890    1.0530 hn        1 MOL      0.263688
     86 H34         1.0160    5.2690   -0.2120 h1        1 MOL      0.107934
     87 H35         3.1990    6.3380    0.2250 hc        1 MOL      0.050517
     88 H36         3.7600    4.8280    1.0610 hc        1 MOL      0.050517
     89 H37         2.2840    5.1950    2.9620 hc        1 MOL      0.052518
     90 H38         1.2770    6.1270    2.0950 hc        1 MOL      0.052518
     91 H39         1.8320    7.1360    4.3380 hn        1 MOL      0.366529
     92 H40         3.1350    8.3360    4.4560 hn        1 MOL      0.366529
     93 N9          2.8960    3.3770   -1.8850 n         1 MOL     -0.300446
     94 C30         3.3210    3.0790   -3.2710 c3        1 MOL     -0.103090
     95 C31         4.6570    2.3760   -3.3480 c         1 MOL      0.462797
     96 O16         5.3500    2.3650   -4.3820 o         1 MOL     -0.565507
     97 C32         2.3330    2.1630   -4.0210 c3        1 MOL      0.060282
     98 C33         1.0320    2.9740   -4.3720 c3        1 MOL     -0.128216
     99 C34         1.9440    0.9230   -3.2310 c3        1 MOL     -0.128216
    100 H41         2.8310    2.6180   -1.2190 hn        1 MOL      0.299075
    101 H42         3.5110    3.9650   -3.8770 h1        1 MOL      0.136691
    102 H43         2.6950    1.7540   -4.9630 hc        1 MOL      0.041152
    103 H44         1.2240    3.9370   -4.8500 hc        1 MOL      0.038207
    104 H45         0.3880    2.3880   -5.0250 hc        1 MOL      0.038207
    105 H46         0.5220    3.1660   -3.4270 hc        1 MOL      0.038207
    106 H47         2.7390    0.2190   -2.9630 hc        1 MOL      0.038207
    107 H48         1.3790    1.2900   -2.3650 hc        1 MOL      0.038207
    108 H49         1.2480    0.2830   -3.7720 hc        1 MOL      0.038207
    109 N10         5.1400    1.7800   -2.2670 n         1 MOL     -0.188794
    110 C35         6.4870    1.2020   -2.1990 c3        1 MOL      0.139698
    111 C36         6.4060   -0.3210   -1.7390 c         1 MOL      0.472723
    112 O17         6.7090   -1.1400   -2.5360 o         1 MOL     -0.518053
    113 C37         7.4450    2.0700   -1.3580 c3        1 MOL     -0.230855
    114 C38         6.9600    2.5940   -0.0360 c         1 MOL      0.491793
    115 N11         7.5210    3.5960    0.4600 n         1 MOL     -0.643428
    116 O18         5.9150    2.1840    0.5020 o         1 MOL     -0.528192
    117 H50         4.5520    1.7550   -1.4470 hn        1 MOL      0.074610
    118 H51         6.8700    1.2290   -3.2140 h1        1 MOL      0.066708
    119 H52         7.5790    2.9280   -2.0290 hc        1 MOL      0.066235
    120 H53         8.4100    1.5910   -1.1700 hc        1 MOL      0.066235
    121 H54         8.3630    3.9500    0.0290 hn        1 MOL      0.348817
    122 H55         7.1300    3.8900    1.3500 hn        1 MOL      0.348817
    123 N12         5.8920   -0.6030   -0.5170 n         1 MOL     -0.404010
    124 C39         6.1540   -1.8210    0.2100 c3        1 MOL      0.085959
    125 C40         4.8300   -2.5510    0.5720 c         1 MOL      0.575812
    126 O19         3.7720   -1.9370    0.5800 o         1 MOL     -0.509306
    127 C41         7.0150   -1.5150    1.4750 c3        1 MOL     -0.115313
    128 C42         8.3190   -0.7850    1.2750 ca        1 MOL     -0.045745
    129 C43         8.5570    0.3920    2.0200 ca        1 MOL     -0.118801
    130 C44         9.1480   -1.1040    0.1680 ca        1 MOL     -0.118801
    131 C45         9.6910    1.2160    1.7550 ca        1 MOL     -0.228034
    132 C46        10.3120   -0.3580   -0.0300 ca        1 MOL     -0.228034
    133 C47        10.4770    0.8650    0.6400 ca        1 MOL      0.357086
    134 O20        11.6240    1.6070    0.3150 oh        1 MOL     -0.578586
    135 H56         5.4080    0.1140    0.0110 hn        1 MOL      0.262774
    136 H57         6.6410   -2.5040   -0.4730 h1        1 MOL      0.025945
    137 H58         7.3180   -2.4770    1.8830 hc        1 MOL      0.085221
    138 H59         6.3730   -1.0900    2.2440 hc        1 MOL      0.085221
    139 H60         7.9490    0.5640    2.9020 ha        1 MOL      0.134422
    140 H61         8.8290   -1.9130   -0.4740 ha        1 MOL      0.134422
    141 H62         9.8750    2.0820    2.3710 ha        1 MOL      0.131602
    142 H63        10.9090   -0.6710   -0.8730 ha        1 MOL      0.131602
    143 H64        11.9470    1.5300   -0.5890 ho        1 MOL      0.385075
    144 N13         4.9660   -3.8940    0.7800 n         1 MOL     -0.579567
    145 C48         3.8900   -4.7320    1.1860 c3        1 MOL      0.140392
    146 C49         2.6510   -5.0060    0.2090 c         1 MOL      0.163266
    147 O21         2.0950   -6.1440    0.2120 o         1 MOL     -0.446686
    148 C50         3.4370   -4.4310    2.6290 c3        1 MOL      0.139431
    149 C51         4.5760   -4.5900    3.7150 c3        1 MOL     -0.309760
    150 C52         4.8520   -6.0570    4.1590 c         1 MOL      0.787275
    151 O22         5.8290   -6.3180    4.8970 o         1 MOL     -0.747431
    152 O23         4.1390   -6.9930    3.7730 o         1 MOL     -0.747431
    153 H65         5.8710   -4.3120    0.5960 hn        1 MOL      0.324840
    154 H66         4.3080   -5.7370    1.2240 h1        1 MOL      0.076242
    155 H67         2.6490   -5.1360    2.8730 hc        1 MOL      0.023019
    156 H68         2.9960   -3.4330    2.5980 hc        1 MOL      0.023019
    157 H69         4.2060   -4.0250    4.5700 hc        1 MOL      0.011049
    158 H70         5.4880   -4.0690    3.4080 hc        1 MOL      0.011049
    159 N14         2.2560   -4.1050   -0.7090 n         1 MOL     -0.108901
    160 C53         1.2210   -4.2430   -1.7060 c3        1 MOL     -0.046067
    161 C54         1.6500   -4.9610   -2.9830 c         1 MOL      0.468758
    162 O24         0.7880   -5.5980   -3.5990 o         1 MOL     -0.541431
    163 C55         0.7350   -2.8290   -2.1200 c3        1 MOL     -0.125346
    164 C56         0.2210   -1.9810   -0.9440 c3        1 MOL      0.386153
    165 C57        -1.0230   -2.5810   -0.2890 c         1 MOL      0.514049
    166 O25        -0.8940   -3.5800    0.4170 o         1 MOL     -0.597092
    167 O26        -2.1000   -1.9950   -0.2820 o         1 MOL     -0.597092
    168 H71         2.8800   -3.3210   -0.8710 hn        1 MOL      0.177348
    169 H72         0.4020   -4.7850   -1.2230 h1        1 MOL      0.134940
    170 H73        -0.0100   -2.9760   -2.8940 hc        1 MOL      0.018233
    171 H74         1.4870   -2.1840   -2.5700 hc        1 MOL      0.018233
    172 H75        -0.0760   -0.9910   -1.3090 hc        1 MOL     -0.158650
    173 H76         0.9610   -1.8650   -0.1430 hc        1 MOL     -0.158650
    174 N15         2.9040   -4.8390   -3.3050 n         1 MOL     -0.220947
    175 C58         3.4710   -5.7210   -4.3550 c3        1 MOL     -0.371446
    176 H77         4.5510   -5.5800   -4.4020 h1        1 MOL      0.138593
    177 H78         3.2510   -6.7610   -4.1140 h1        1 MOL      0.138593
    178 H79         3.0300   -5.4680   -5.3190 h1        1 MOL      0.138593
    179 H80         3.4780   -4.2800   -2.7010 hn        1 MOL      0.225957
    180 Ca1        -4.3220   -2.1170    1.1190 Ca        1 MOL      1.717130
    181 O27        -6.0350   -0.5470    2.6400 oh        1 MOL     -0.842306
    182 H81        -6.3090   -0.4790    3.5650 ho        1 MOL      0.392124
    183 H82        -6.7790   -0.2120    2.1420 ho        1 MOL      0.392124
    184 O28        -3.3430   -4.4080    1.2210 oh        1 MOL     -0.842306
    185 H83        -2.4090   -4.2810    1.0370 ho        1 MOL      0.392124
    186 H84        -3.5020   -5.3300    1.0550 ho        1 MOL      0.392124
    187 O29        -5.0040   -3.2000    3.7920 oh        1 MOL     -0.842306
    188 H85        -4.2390   -2.7090    4.1010 ho        1 MOL      0.392124
    189 H86        -5.6050   -3.2090    4.5410 ho        1 MOL      0.392124
@<TRIPOS>BOND
     1    1    2 1   
     2    1    4 1   
     3    1    5 1   
     4    1    6 1   
     5    2    3 2   
     6    2    7 1   
     7    7    8 1   
     8    7   15 1   
     9    8    9 1   
    10    8   11 1   
    11    8   16 1   
    12    9   10 2   
    13    9   19 1   
    14   11   12 1   
    15   11   17 1   
    16   11   18 1   
    17   12   13 1   
    18   12   14 1   
    19   19   20 1   
    20   19   27 1   
    21   20   21 1   
    22   20   23 1   
    23   20   28 1   
    24   21   22 2   
    25   21   38 1   
    26   23   24 1   
    27   23   25 1   
    28   23   29 1   
    29   24   26 1   
    30   24   30 1   
    31   24   31 1   
    32   25   32 1   
    33   25   33 1   
    34   25   34 1   
    35   26   35 1   
    36   26   36 1   
    37   26   37 1   
    38   38   39 1   
    39   38   46 1   
    40   39   40 1   
    41   39   42 1   
    42   39   47 1   
    43   40   41 2   
    44   40   50 1   
    45   42   43 1   
    46   42   48 1   
    47   42   49 1   
    48   43   44 1   
    49   43   45 1   
    50   50   51 1   
    51   50   54 1   
    52   51   52 1   
    53   51   55 1   
    54   51   56 1   
    55   52   53 2   
    56   52   57 1   
    57   57   58 1   
    58   57   65 1   
    59   58   59 1   
    60   58   61 1   
    61   58   66 1   
    62   59   60 2   
    63   59   69 1   
    64   61   62 1   
    65   61   67 1   
    66   61   68 1   
    67   62   63 1   
    68   62   64 1   
    69   69   70 1   
    70   69   73 1   
    71   70   71 1   
    72   70   74 1   
    73   70   75 1   
    74   71   72 2   
    75   71   76 1   
    76   76   77 1   
    77   76   85 1   
    78   77   78 1   
    79   77   80 1   
    80   77   86 1   
    81   78   79 2   
    82   78   93 1   
    83   80   81 1   
    84   80   87 1   
    85   80   88 1   
    86   81   82 1   
    87   81   89 1   
    88   81   90 1   
    89   82   83 1   
    90   82   84 2   
    91   83   91 1   
    92   83   92 1   
    93   93   94 1   
    94   93  100 1   
    95   94   95 1   
    96   94   97 1   
    97   94  101 1   
    98   95   96 2   
    99   95  109 1   
   100   97   98 1   
   101   97   99 1   
   102   97  102 1   
   103   98  103 1   
   104   98  104 1   
   105   98  105 1   
   106   99  106 1   
   107   99  107 1   
   108   99  108 1   
   109  109  110 1   
   110  109  117 1   
   111  110  111 1   
   112  110  113 1   
   113  110  118 1   
   114  111  112 2   
   115  111  123 1   
   116  113  114 1   
   117  113  119 1   
   118  113  120 1   
   119  114  115 1   
   120  114  116 2   
   121  115  121 1   
   122  115  122 1   
   123  123  124 1   
   124  123  135 1   
   125  124  125 1   
   126  124  127 1   
   127  124  136 1   
   128  125  126 2   
   129  125  144 1   
   130  127  128 1   
   131  127  137 1   
   132  127  138 1   
   133  128  129 ar  
   134  128  130 ar  
   135  129  131 ar  
   136  129  139 1   
   137  130  132 ar  
   138  130  140 1   
   139  131  133 ar  
   140  131  141 1   
   141  132  133 ar  
   142  132  142 1   
   143  133  134 1   
   144  134  143 1   
   145  144  145 1   
   146  144  153 1   
   147  145  146 1   
   148  145  148 1   
   149  145  154 1   
   150  146  147 2   
   151  146  159 1   
   152  148  149 1   
   153  148  155 1   
   154  148  156 1   
   155  149  150 1   
   156  149  157 1   
   157  149  158 1   
   158  150  151 1   
   159  150  152 1   
   160  159  160 1   
   161  159  168 1   
   162  160  161 1   
   163  160  163 1   
   164  160  169 1   
   165  161  162 2   
   166  161  174 1   
   167  163  164 1   
   168  163  170 1   
   169  163  171 1   
   170  164  165 1   
   171  164  172 1   
   172  164  173 1   
   173  165  166 1   
   174  165  167 1   
   175  174  175 1   
   176  174  179 1   
   177  175  176 1   
   178  175  177 1   
   179  175  178 1   
   180  181  182 1   
   181  181  183 1   
   182  184  185 1   
   183  184  186 1   
   184  187  188 1   
   185  187  189 1   
@<TRIPOS>SUBSTRUCTURE
     1 MOL         1 TEMP              0 ****  ****    0 ROOT
