@<TRIPOS>MOLECULE
MOL
  182   178     1     0     0
SMALL
resp


@<TRIPOS>ATOM
      1 C1         -0.1380   -3.0090    5.9090 c3        1 MOL     -0.371638
      2 C2          0.1040   -3.1490    4.4250 c         1 MOL      0.741398
      3 O1         -0.7960   -3.2160    3.6060 o         1 MOL     -0.574233
      4 H1          0.5070   -3.7040    6.4490 hc        1 MOL      0.111073
      5 H2          0.0880   -1.9890    6.2200 hc        1 MOL      0.111073
      6 H3         -1.1810   -3.2340    6.1320 hc        1 MOL      0.111073
      7 N1          1.3620   -3.1370    3.9950 n         1 MOL     -0.596810
      8 C3          1.7070   -2.9340    2.5520 c3        1 MOL      0.152068
      9 C4          1.5540   -4.2940    1.7300 c         1 MOL      0.554768
     10 O2          1.8630   -5.3460    2.3070 o         1 MOL     -0.551938
     11 C5          3.1220   -2.3260    2.4730 c3        1 MOL     -0.090431
     12 C6          3.3590   -1.6790    1.0990 c         1 MOL      0.465546
     13 O3          4.0570   -0.6560    1.0120 o         1 MOL     -0.665097
     14 O4          3.0620   -2.1600   -0.0270 o         1 MOL     -0.665097
     15 H4          2.0890   -3.1290    4.7020 hn        1 MOL      0.320551
     16 H5          1.0410   -2.1350    2.2120 h1        1 MOL     -0.220023
     17 H6          3.8640   -3.0990    2.7250 hc        1 MOL      0.086720
     18 H7          3.1820   -1.5700    3.2540 hc        1 MOL      0.086720
     19 N2          1.2260   -4.2680    0.4030 n         1 MOL     -0.211136
     20 C7          1.3400   -5.5170   -0.4150 c3        1 MOL     -0.064666
     21 C8          2.6110   -5.5560   -1.2300 c         1 MOL      0.495036
     22 O5          3.0330   -6.6470   -1.5820 o         1 MOL     -0.545873
     23 C9          0.0690   -5.6800   -1.2410 c3        1 MOL      0.022265
     24 C10        -1.2000   -6.1970   -0.5870 c3        1 MOL      0.090775
     25 C11        -2.4690   -6.3230   -1.4850 c3        1 MOL      0.029708
     26 C12        -3.5580   -7.0700   -0.6200 c3        1 MOL      0.033974
     27 N3         -4.5390   -7.6480   -1.5440 n4        1 MOL     -0.199629
     28 H8          1.1870   -3.3720   -0.0710 hn        1 MOL      0.219860
     29 H9          1.3450   -6.3820    0.2550 h1        1 MOL      0.106114
     30 H10         0.2520   -6.4420   -2.0000 hc        1 MOL     -0.022874
     31 H11        -0.0920   -4.7180   -1.7160 hc        1 MOL     -0.022874
     32 H12        -1.4430   -5.5440    0.2500 hc        1 MOL     -0.012599
     33 H13        -0.9520   -7.1630   -0.1580 hc        1 MOL     -0.012599
     34 H14        -2.2610   -6.8270   -2.4260 hc        1 MOL      0.016260
     35 H15        -2.9100   -5.3520   -1.7110 hc        1 MOL      0.016260
     36 H16        -4.0580   -6.3630    0.0290 hx        1 MOL      0.070954
     37 H17        -3.0710   -7.8580   -0.0180 hx        1 MOL      0.070954
     38 H18        -5.1290   -6.9500   -1.9900 hn        1 MOL      0.232162
     39 H19        -4.0870   -8.1270   -2.3010 hn        1 MOL      0.232162
     40 H20        -5.2630   -8.0420   -0.9550 hn        1 MOL      0.232162
     41 N4          3.2290   -4.4230   -1.6330 n         1 MOL     -0.152728
     42 C13         4.3650   -4.3890   -2.5360 c3        1 MOL      0.139117
     43 C14         5.6600   -4.2950   -1.7440 c         1 MOL      0.422302
     44 O6          6.5670   -5.0820   -1.9350 o         1 MOL     -0.530155
     45 C15         4.2650   -3.3620   -3.6740 c3        1 MOL     -0.413174
     46 C16         3.8260   -1.9610   -3.1300 c         1 MOL      0.782255
     47 O7          4.6680   -1.3190   -2.4550 o         1 MOL     -0.761029
     48 O8          2.6860   -1.5640   -3.1410 o         1 MOL     -0.761029
     49 H21         3.0870   -3.6180   -1.0530 hn        1 MOL     -0.057085
     50 H22         4.4250   -5.3210   -3.1020 h1        1 MOL      0.073116
     51 H23         3.4490   -3.6600   -4.3400 hc        1 MOL      0.117430
     52 H24         5.2440   -3.2440   -4.1310 hc        1 MOL      0.117430
     53 N5          5.5800   -3.4760   -0.6510 n         1 MOL     -0.211607
     54 C17         6.5200   -3.4120    0.5030 c3        1 MOL     -0.172713
     55 C18         7.1150   -2.0670    0.9730 c         1 MOL      0.422975
     56 O9          7.7960   -1.9130    2.0250 o         1 MOL     -0.535751
     57 H25         4.7340   -2.9320   -0.6970 hn        1 MOL      0.338289
     58 H26         7.2840   -4.1040    0.1570 h1        1 MOL      0.111462
     59 H27         6.0180   -3.8790    1.3490 h1        1 MOL      0.111462
     60 N6          6.9150   -1.0970    0.1310 n         1 MOL     -0.108937
     61 C19         7.6820    0.1910    0.1570 c3        1 MOL      0.207681
     62 C20         6.7000    1.4010   -0.1320 c         1 MOL      0.425951
     63 O10         5.5980    1.2150   -0.6430 o         1 MOL     -0.453694
     64 C21         8.8040    0.2230   -0.8140 c3        1 MOL     -0.287884
     65 C22         9.8260    1.3020   -0.4310 c         1 MOL      0.663838
     66 N7         10.1760    2.1160   -1.3480 n         1 MOL     -0.769012
     67 O11        10.1600    1.4680    0.7240 o         1 MOL     -0.536717
     68 H28         6.4070   -1.3090   -0.7130 hn        1 MOL      0.134002
     69 H29         8.1250    0.2830    1.1420 h1        1 MOL      0.008358
     70 H30         8.4000    0.2770   -1.8240 hc        1 MOL      0.075876
     71 H31         9.2860   -0.7550   -0.8040 hc        1 MOL      0.075876
     72 H32        10.1400    1.8220   -2.3080 hn        1 MOL      0.357260
     73 H33        10.7620    2.9120   -1.1480 hn        1 MOL      0.357260
     74 N8          7.0370    2.6190    0.3710 n         1 MOL     -0.397364
     75 C23         6.3950    3.9020    0.0330 c3        1 MOL     -0.095301
     76 C24         5.0050    4.1350    0.6880 c         1 MOL      0.613733
     77 O12         4.8530    3.9820    1.9340 o         1 MOL     -0.500961
     78 H34         7.9470    2.6560    0.8040 hn        1 MOL      0.305136
     79 H35         6.4920    3.9830   -1.0480 h1        1 MOL      0.082693
     80 H36         7.0260    4.7420    0.3230 h1        1 MOL      0.082693
     81 N9          3.9320    4.3850   -0.1280 n         1 MOL     -0.686058
     82 C25         2.5450    4.5460    0.4010 c3        1 MOL      0.397693
     83 C26         1.8850    3.1620    0.6970 c         1 MOL      0.356357
     84 O13         2.4210    2.1800    0.2450 o         1 MOL     -0.490482
     85 C27         1.7100    5.4140   -0.5450 c3        1 MOL     -0.158013
     86 C28         2.2010    6.8430   -0.6400 ca        1 MOL      0.208915
     87 C29         2.7400    7.2660   -1.9230 ca        1 MOL     -0.333280
     88 C30         2.3050    7.6870    0.5010 ca        1 MOL     -0.333280
     89 C31         3.4510    8.4860   -1.9430 ca        1 MOL     -0.073529
     90 C32         2.9910    8.9570    0.4390 ca        1 MOL     -0.073529
     91 C33         3.6950    9.2800   -0.8040 ca        1 MOL      0.148875
     92 O14         4.3160   10.4590   -0.9800 oh        1 MOL     -0.412313
     93 H37         4.0660    4.5620   -1.1140 hn        1 MOL      0.290005
     94 H38         2.6080    5.0530    1.3580 h1        1 MOL      0.039323
     95 H39         0.6590    5.3390   -0.2680 hc        1 MOL      0.022494
     96 H40         1.6520    4.9440   -1.5280 hc        1 MOL      0.022494
     97 H41         2.6450    6.6590   -2.8080 ha        1 MOL      0.167890
     98 H42         1.8140    7.4210    1.4270 ha        1 MOL      0.167890
     99 H43         3.9420    8.6890   -2.8790 ha        1 MOL      0.127463
    100 H44         2.9730    9.6870    1.2400 ha        1 MOL      0.127463
    101 H45         4.7930   10.5550   -1.8030 ho        1 MOL      0.350343
    102 N10         0.8480    3.1160    1.5500 n         1 MOL     -0.436028
    103 C34         0.1350    1.9540    2.1500 c3        1 MOL      0.122615
    104 C35        -0.1130    0.7700    1.1710 c         1 MOL      0.033122
    105 O15         0.8200    0.1140    0.6880 o         1 MOL     -0.172537
    106 C36         0.9530    1.4100    3.3740 c3        1 MOL      0.397873
    107 C37         0.2580    0.2590    4.0930 c3        1 MOL     -0.217741
    108 C38         1.2990    2.6010    4.2680 c3        1 MOL     -0.080123
    109 C39        -1.1840    0.5610    4.6370 c3        1 MOL     -0.239490
    110 H46         0.4900    4.0460    1.7080 hn        1 MOL      0.248622
    111 H47        -0.8510    2.2570    2.4970 h1        1 MOL      0.045147
    112 H48         1.9140    1.0120    3.0230 hc        1 MOL     -0.023208
    113 H49         0.9860   -0.1230    4.8030 hc        1 MOL      0.086812
    114 H50         0.1590   -0.5350    3.3480 hc        1 MOL      0.086812
    115 H51         1.8000    2.0550    5.0730 hc        1 MOL      0.000801
    116 H52         1.9540    3.3730    3.8730 hc        1 MOL      0.000801
    117 H53         0.4020    3.0990    4.6270 hc        1 MOL      0.000801
    118 H54        -1.2020    1.4180    5.3220 hc        1 MOL      0.069716
    119 H55        -1.8420    0.7780    3.7860 hc        1 MOL      0.069716
    120 H56        -1.5210   -0.3180    5.1940 hc        1 MOL      0.069716
    121 N11        -1.3610    0.4830    0.8650 n         1 MOL     -0.260004
    122 C40        -1.7770   -0.6560   -0.0260 c3        1 MOL     -0.242764
    123 C41        -3.2030   -0.6360   -0.5800 c         1 MOL      0.528827
    124 O16        -3.5670   -1.3590   -1.5500 o         1 MOL     -0.550197
    125 C42        -1.7130   -2.0100    0.7540 c3        1 MOL      0.481751
    126 O17        -2.3180   -1.9550    2.0340 oh        1 MOL     -0.648450
    127 H57        -2.0960    1.0080    1.3060 hn        1 MOL      0.268286
    128 H58        -1.1220   -0.7580   -0.8800 h1        1 MOL      0.150190
    129 H59        -0.6520   -2.2380    0.8950 h1        1 MOL     -0.063044
    130 H60        -2.1930   -2.7890    0.1590 h1        1 MOL     -0.063044
    131 H61        -1.6440   -2.4040    2.5630 ho        1 MOL      0.401354
    132 N12        -4.0550    0.0870    0.1180 n         1 MOL     -0.378667
    133 C43        -5.4370    0.3540   -0.2540 c3        1 MOL      0.082298
    134 C44        -5.6600    0.8280   -1.7440 c         1 MOL      0.580926
    135 O18        -4.7460    1.3430   -2.2910 o         1 MOL     -0.549341
    136 C45        -6.1350    1.1740    0.8100 c3        1 MOL     -0.308419
    137 H62        -3.5720    0.6890    0.7680 hn        1 MOL      0.264121
    138 H63        -6.0580   -0.5430   -0.1130 h1        1 MOL      0.078071
    139 H64        -5.7510    0.8810    1.7870 hc        1 MOL      0.099164
    140 H65        -6.0520    2.2560    0.6680 hc        1 MOL      0.099164
    141 H66        -7.1970    0.9170    0.8580 hc        1 MOL      0.099164
    142 N13        -6.8020    0.6360   -2.3710 n         1 MOL     -0.522238
    143 C46        -8.1570    0.2180   -1.8350 c3        1 MOL      0.288444
    144 C47        -9.2980    1.0140   -2.5410 c         1 MOL      0.446328
    145 O19        -9.0830    1.5250   -3.6580 o         1 MOL     -0.542517
    146 C48        -8.3650   -1.3050   -2.1110 c3        1 MOL     -0.307688
    147 H67        -6.8710    0.9290   -3.3340 hn        1 MOL      0.307285
    148 H68        -8.1830    0.3930   -0.7570 h1        1 MOL     -0.006150
    149 H69        -9.3240   -1.6370   -1.7180 hc        1 MOL      0.088640
    150 H70        -8.2940   -1.4330   -3.1980 hc        1 MOL      0.088640
    151 H71        -7.5650   -1.9110   -1.6720 hc        1 MOL      0.088640
    152 N14       -10.4750    1.3760   -1.9850 n         1 MOL     -0.460754
    153 C49       -10.8300    1.1860   -0.5700 c3        1 MOL     -0.117951
    154 C50       -10.1120    2.2380    0.2800 c         1 MOL      0.498772
    155 O20        -9.5450    1.7840    1.3110 o         1 MOL     -0.537875
    156 C51       -12.3740    1.0730   -0.3960 c3        1 MOL      0.021904
    157 C52       -12.8490    0.7270    1.0510 c3        1 MOL     -0.223315
    158 C53       -14.3270    0.4300    1.1640 c         1 MOL      0.747108
    159 O21       -14.7040   -0.7310    1.0940 o         1 MOL     -0.672324
    160 O22       -15.1090    1.3600    1.3960 o         1 MOL     -0.672324
    161 H72       -11.1490    1.7120   -2.6510 hn        1 MOL      0.320453
    162 H73       -10.3820    0.2200   -0.3290 h1        1 MOL      0.140741
    163 H74       -12.7210    0.2160   -0.9850 hc        1 MOL      0.022319
    164 H75       -12.8250    1.9700   -0.8180 hc        1 MOL      0.022319
    165 H76       -12.6300    1.6040    1.6590 hc        1 MOL      0.047029
    166 H77       -12.2340   -0.1160    1.3670 hc        1 MOL      0.047029
    167 N15        -9.9210    3.4830   -0.2050 n         1 MOL     -0.224442
    168 C54        -9.0200    4.4060    0.3220 c3        1 MOL     -0.264353
    169 H78        -9.1350    4.4480    1.4050 h1        1 MOL      0.109048
    170 H79        -8.0030    4.1030    0.0770 h1        1 MOL      0.109048
    171 H80        -9.2190    5.3910   -0.1020 h1        1 MOL      0.109048
    172 H81       -10.4120    3.7360   -1.0580 hn        1 MOL      0.265460
    173 Ca1         2.8010    0.1440   -1.2050 Ca        1 MOL      1.741904
    174 O23         3.2160    1.9930   -3.0740 oh        1 MOL     -0.862214
    175 H82         4.0070    2.3610   -3.4720 ho        1 MOL      0.427618
    176 H83         2.5030    2.4820   -3.4710 ho        1 MOL      0.427618
    177 O24         0.6470   -2.2490   -1.6880 oh        1 MOL     -0.862214
    178 H84        -0.1160   -2.1180   -2.2350 ho        1 MOL      0.427618
    179 H85         1.3890   -2.1560   -2.2840 ho        1 MOL      0.427618
    180 O25         0.4210    1.0800   -2.0640 oh        1 MOL     -0.862214
    181 H86        -0.3870    0.8740   -2.5270 ho        1 MOL      0.427618
    182 H87         0.2670    1.9560   -1.6960 ho        1 MOL      0.427618
@<TRIPOS>BOND
     1    1    2 1   
     2    1    4 1   
     3    1    5 1   
     4    1    6 1   
     5    2    3 2   
     6    2    7 1   
     7    7    8 1   
     8    7   15 1   
     9    8    9 1   
    10    8   11 1   
    11    8   16 1   
    12    9   10 2   
    13    9   19 1   
    14   11   12 1   
    15   11   17 1   
    16   11   18 1   
    17   12   13 1   
    18   12   14 1   
    19   19   20 1   
    20   19   28 1   
    21   20   21 1   
    22   20   23 1   
    23   20   29 1   
    24   21   22 2   
    25   21   41 1   
    26   23   24 1   
    27   23   30 1   
    28   23   31 1   
    29   24   25 1   
    30   24   32 1   
    31   24   33 1   
    32   25   26 1   
    33   25   34 1   
    34   25   35 1   
    35   26   27 1   
    36   26   36 1   
    37   26   37 1   
    38   27   38 1   
    39   27   39 1   
    40   27   40 1   
    41   41   42 1   
    42   41   49 1   
    43   42   43 1   
    44   42   45 1   
    45   42   50 1   
    46   43   44 2   
    47   43   53 1   
    48   45   46 1   
    49   45   51 1   
    50   45   52 1   
    51   46   47 1   
    52   46   48 1   
    53   53   54 1   
    54   53   57 1   
    55   54   55 1   
    56   54   58 1   
    57   54   59 1   
    58   55   56 2   
    59   55   60 1   
    60   60   61 1   
    61   60   68 1   
    62   61   62 1   
    63   61   64 1   
    64   61   69 1   
    65   62   63 2   
    66   62   74 1   
    67   64   65 1   
    68   64   70 1   
    69   64   71 1   
    70   65   66 1   
    71   65   67 2   
    72   66   72 1   
    73   66   73 1   
    74   74   75 1   
    75   74   78 1   
    76   75   76 1   
    77   75   79 1   
    78   75   80 1   
    79   76   77 2   
    80   76   81 1   
    81   81   82 1   
    82   81   93 1   
    83   82   83 1   
    84   82   85 1   
    85   82   94 1   
    86   83   84 2   
    87   83  102 1   
    88   85   86 1   
    89   85   95 1   
    90   85   96 1   
    91   86   87 ar  
    92   86   88 ar  
    93   87   89 ar  
    94   87   97 1   
    95   88   90 ar  
    96   88   98 1   
    97   89   91 ar  
    98   89   99 1   
    99   90   91 ar  
   100   90  100 1   
   101   91   92 1   
   102   92  101 1   
   103  102  103 1   
   104  102  110 1   
   105  103  104 1   
   106  103  106 1   
   107  103  111 1   
   108  104  105 2   
   109  104  121 1   
   110  106  107 1   
   111  106  108 1   
   112  106  112 1   
   113  107  109 1   
   114  107  113 1   
   115  107  114 1   
   116  108  115 1   
   117  108  116 1   
   118  108  117 1   
   119  109  118 1   
   120  109  119 1   
   121  109  120 1   
   122  121  122 1   
   123  121  127 1   
   124  122  123 1   
   125  122  125 1   
   126  122  128 1   
   127  123  124 2   
   128  123  132 1   
   129  125  126 1   
   130  125  129 1   
   131  125  130 1   
   132  126  131 1   
   133  132  133 1   
   134  132  137 1   
   135  133  134 1   
   136  133  136 1   
   137  133  138 1   
   138  134  135 2   
   139  134  142 1   
   140  136  139 1   
   141  136  140 1   
   142  136  141 1   
   143  142  143 1   
   144  142  147 1   
   145  143  144 1   
   146  143  146 1   
   147  143  148 1   
   148  144  145 2   
   149  144  152 1   
   150  146  149 1   
   151  146  150 1   
   152  146  151 1   
   153  152  153 1   
   154  152  161 1   
   155  153  154 1   
   156  153  156 1   
   157  153  162 1   
   158  154  155 2   
   159  154  167 1   
   160  156  157 1   
   161  156  163 1   
   162  156  164 1   
   163  157  158 1   
   164  157  165 1   
   165  157  166 1   
   166  158  159 1   
   167  158  160 1   
   168  167  168 1   
   169  167  172 1   
   170  168  169 1   
   171  168  170 1   
   172  168  171 1   
   173  174  175 1   
   174  174  176 1   
   175  177  178 1   
   176  177  179 1   
   177  180  181 1   
   178  180  182 1   
@<TRIPOS>SUBSTRUCTURE
     1 MOL         1 TEMP              0 ****  ****    0 ROOT
