@<TRIPOS>MOLECULE
MOL
  188   182     1     0     0
SMALL
resp


@<TRIPOS>ATOM
      1 C1         -4.0810    0.1450   -4.7620 c3        1 MOL     -0.236511
      2 C2         -4.9200    0.0260   -3.4320 c         1 MOL      0.612030
      3 O1         -4.3710   -0.1470   -2.3560 o         1 MOL     -0.512550
      4 H1         -3.7800   -0.8500   -5.0910 hc        1 MOL      0.050339
      5 H2         -4.6890    0.6140   -5.5350 hc        1 MOL      0.050339
      6 H3         -3.1930    0.7500   -4.5780 hc        1 MOL      0.050339
      7 N1         -6.2380    0.1140   -3.5130 n         1 MOL     -0.433128
      8 C3         -7.2580   -0.1060   -2.4410 c3        1 MOL      0.009901
      9 C4         -7.1070   -1.4980   -1.7390 c         1 MOL      0.518997
     10 O2         -7.3880   -1.6480   -0.5150 o         1 MOL     -0.480586
     11 C5         -7.2640    0.9770   -1.3560 c3        1 MOL     -0.215881
     12 C6         -7.3180    2.3890   -1.9690 c         1 MOL      0.725507
     13 O3         -6.5060    3.2400   -1.5310 o         1 MOL     -0.677117
     14 O4         -8.1560    2.6620   -2.8550 o         1 MOL     -0.677117
     15 H4         -6.5820    0.3560   -4.4330 hn        1 MOL      0.277281
     16 H5         -8.2180   -0.2200   -2.9460 h1        1 MOL      0.078116
     17 H6         -6.4210    0.9190   -0.6760 hc        1 MOL      0.077659
     18 H7         -8.1670    0.9130   -0.7410 hc        1 MOL      0.077659
     19 N2         -6.5280   -2.5390   -2.4440 n         1 MOL     -0.515019
     20 C7         -6.1490   -3.9160   -1.9580 c3        1 MOL      0.213274
     21 C8         -5.0960   -3.9330   -0.8310 c         1 MOL      0.463938
     22 O5         -5.0000   -4.9230   -0.0910 o         1 MOL     -0.563109
     23 C9         -5.6190   -4.7100   -3.2280 c3        1 MOL     -0.388466
     24 C10        -4.5620   -4.0930   -4.0880 c3        1 MOL      0.366269
     25 C11        -3.8960   -5.0370   -5.1030 c3        1 MOL      0.026825
     26 C12        -2.9850   -4.2940   -6.0210 c3        1 MOL     -0.188793
     27 N3         -3.6410   -3.7250   -7.2130 n4        1 MOL     -0.187536
     28 H8         -6.3630   -2.3790   -3.4270 hn        1 MOL      0.222723
     29 H9         -7.0740   -4.3120   -1.5320 h1        1 MOL      0.080086
     30 H10        -6.4330   -4.9430   -3.9080 hc        1 MOL      0.076626
     31 H11        -5.2380   -5.6090   -2.7320 hc        1 MOL      0.076626
     32 H12        -3.8350   -3.7580   -3.3530 hc        1 MOL     -0.103513
     33 H13        -5.0250   -3.2730   -4.6540 hc        1 MOL     -0.103513
     34 H14        -4.5980   -5.5380   -5.7650 hc        1 MOL      0.042006
     35 H15        -3.3400   -5.7840   -4.5460 hc        1 MOL      0.042006
     36 H16        -2.2950   -5.0870   -6.3320 hx        1 MOL      0.137591
     37 H17        -2.4770   -3.5010   -5.4600 hx        1 MOL      0.137591
     38 H18        -3.2990   -2.7860   -7.4000 hn        1 MOL      0.243781
     39 H19        -3.5530   -4.2160   -8.0920 hn        1 MOL      0.243781
     40 H20        -4.6270   -3.5920   -7.0390 hn        1 MOL      0.243781
     41 N4         -4.3450   -2.8140   -0.6950 n         1 MOL     -0.074732
     42 C13        -3.3330   -2.8780    0.3050 c3        1 MOL     -0.011325
     43 C14        -3.9700   -2.8870    1.7050 c         1 MOL      0.490702
     44 O6         -4.9860   -2.2010    1.9280 o         1 MOL     -0.491393
     45 C15        -2.4040   -1.6590    0.0730 c3        1 MOL     -0.229053
     46 C16        -1.2140   -1.6740    1.0340 c         1 MOL      0.716016
     47 O7         -1.2970   -1.2320    2.2090 o         1 MOL     -0.645866
     48 O8         -0.2250   -2.1870    0.5290 o         1 MOL     -0.645866
     49 H21        -4.3770   -2.0030   -1.2760 hn        1 MOL      0.111103
     50 H22        -2.7600   -3.8100    0.2260 h1        1 MOL      0.042240
     51 H23        -2.9870   -0.7540    0.2490 hc        1 MOL      0.075802
     52 H24        -2.0440   -1.7470   -0.9520 hc        1 MOL      0.075802
     53 N5         -3.3300   -3.5470    2.7030 n         1 MOL     -0.249847
     54 C17        -3.6850   -3.7690    4.0950 c3        1 MOL     -0.077418
     55 C18        -3.8100   -2.4480    4.9290 c         1 MOL      0.575174
     56 O9         -4.6750   -2.4290    5.7960 o         1 MOL     -0.556794
     57 H25        -2.5610   -4.0620    2.2960 hn        1 MOL      0.194707
     58 H26        -2.8160   -4.2830    4.5060 h1        1 MOL      0.060521
     59 H27        -4.5590   -4.4030    4.2360 h1        1 MOL      0.060521
     60 N6         -2.9430   -1.4910    4.5730 n         1 MOL     -0.362966
     61 C19        -3.0740   -0.1770    5.2460 c3        1 MOL      0.078663
     62 C20        -3.3060    0.9860    4.2990 c         1 MOL      0.515020
     63 O10        -3.8080    1.9960    4.7390 o         1 MOL     -0.545363
     64 C21        -1.8760    0.0160    6.1450 c3        1 MOL     -0.212937
     65 C22        -0.6180    0.5400    5.4590 c         1 MOL      0.365629
     66 N7         -0.1440    1.6300    5.9210 n         1 MOL     -0.528246
     67 O11        -0.0860    0.0570    4.4130 o         1 MOL     -0.452623
     68 H28        -2.2990   -1.5690    3.7960 hn        1 MOL      0.103771
     69 H29        -3.8930   -0.1020    5.9720 h1        1 MOL      0.104790
     70 H30        -1.6630   -0.8690    6.7380 hc        1 MOL      0.084306
     71 H31        -2.2380    0.7540    6.8670 hc        1 MOL      0.084306
     72 H32        -0.4580    1.8870    6.8450 hn        1 MOL      0.315838
     73 H33         0.7850    1.8960    5.6560 hn        1 MOL      0.315838
     74 N8         -2.9520    0.8450    2.9920 n         1 MOL     -0.188142
     75 C23        -3.3400    1.8450    2.0350 c3        1 MOL     -0.233983
     76 C24        -2.0550    2.6850    1.6720 c         1 MOL      0.676580
     77 O12        -1.0520    2.6560    2.3800 o         1 MOL     -0.564771
     78 H34        -2.3120    0.1160    2.6970 hn        1 MOL      0.159902
     79 H35        -4.1380    2.5250    2.3600 h1        1 MOL      0.147436
     80 H36        -3.7420    1.4090    1.1290 h1        1 MOL      0.147436
     81 N9         -1.9870    3.2780    0.4630 n         1 MOL     -0.716833
     82 C25        -0.8360    3.8470   -0.1920 c3        1 MOL      0.610580
     83 C26         0.1200    2.7270   -0.7310 c         1 MOL      0.297365
     84 O13        -0.1810    1.5100   -0.7710 o         1 MOL     -0.491700
     85 C27        -1.3410    4.6910   -1.3420 c3        1 MOL     -0.298465
     86 C28        -2.3230    5.8490   -1.0320 ca        1 MOL      0.357147
     87 C29        -3.3640    6.2060   -1.9340 ca        1 MOL     -0.419654
     88 C30        -2.0340    6.7610    0.0190 ca        1 MOL     -0.419654
     89 C31        -4.1760    7.3310   -1.6170 ca        1 MOL     -0.045007
     90 C32        -2.7850    7.8960    0.3190 ca        1 MOL     -0.045007
     91 C33        -3.8720    8.1730   -0.5130 ca        1 MOL      0.142114
     92 O14        -4.7190    9.1430   -0.1800 oh        1 MOL     -0.447342
     93 H37        -2.7250    2.9850   -0.1560 hn        1 MOL      0.328282
     94 H38        -0.2280    4.5470    0.3950 h1        1 MOL     -0.088165
     95 H39        -1.7530    4.0250   -2.0920 hc        1 MOL      0.061901
     96 H40        -0.4560    5.1910   -1.7420 hc        1 MOL      0.061901
     97 H41        -3.6830    5.5110   -2.7030 ha        1 MOL      0.192976
     98 H42        -1.1290    6.5400    0.5570 ha        1 MOL      0.192976
     99 H43        -5.0700    7.5800   -2.1780 ha        1 MOL      0.117762
    100 H44        -2.5460    8.5380    1.1430 ha        1 MOL      0.117762
    101 H45        -5.3520    9.2680   -0.8930 ho        1 MOL      0.371153
    102 N10         1.3280    3.1400   -1.0750 n         1 MOL     -0.528012
    103 C34         2.4360    2.2410   -1.4070 c3        1 MOL      0.064899
    104 C35         3.6270    2.4070   -0.4990 c         1 MOL      0.357154
    105 O15         4.2140    1.4020   -0.0490 o         1 MOL     -0.427077
    106 C36         2.8410    2.3500   -2.9360 c3        1 MOL      0.230980
    107 C37         1.6490    2.1930   -3.9330 c3        1 MOL     -0.149062
    108 C38         4.0400    1.3970   -3.2690 c3        1 MOL     -0.490860
    109 C39         2.0830    2.6380   -5.3530 c3        1 MOL     -0.274086
    110 H46         1.4530    4.1390   -0.9480 hn        1 MOL      0.299917
    111 H47         2.0590    1.2370   -1.2340 h1        1 MOL      0.104365
    112 H48         3.2010    3.3810   -3.0190 hc        1 MOL     -0.072949
    113 H49         0.8480    2.8380   -3.5770 hc        1 MOL      0.109912
    114 H50         1.3100    1.1620   -3.8580 hc        1 MOL      0.109912
    115 H51         3.7010    0.3670   -3.1930 hc        1 MOL      0.130726
    116 H52         4.3660    1.6560   -4.2720 hc        1 MOL      0.130726
    117 H53         4.8950    1.3910   -2.5840 hc        1 MOL      0.130726
    118 H54         2.5130    3.6380   -5.3800 hc        1 MOL      0.079268
    119 H55         2.8520    2.0530   -5.8540 hc        1 MOL      0.079268
    120 H56         1.1880    2.7140   -5.9720 hc        1 MOL      0.079268
    121 N11         4.1220    3.6270   -0.3710 n         1 MOL     -0.198344
    122 C40         5.2650    3.9600    0.5170 c3        1 MOL     -0.164915
    123 C41         6.6350    3.4250    0.0530 c         1 MOL      0.394869
    124 O16         7.4110    2.9030    0.8770 o         1 MOL     -0.463412
    125 C42         5.1800    5.4640    0.9190 c3        1 MOL      0.224793
    126 O17         4.0100    5.7700    1.6100 oh        1 MOL     -0.582949
    127 H57         3.6470    4.3500   -0.8890 hn        1 MOL      0.243594
    128 H58         5.0660    3.5310    1.4980 h1        1 MOL      0.179497
    129 H59         5.3530    6.1200    0.0720 h1        1 MOL      0.006845
    130 H60         6.0930    5.6230    1.4990 h1        1 MOL      0.006845
    131 H61         4.0830    6.7090    1.8160 ho        1 MOL      0.401216
    132 N12         6.8210    3.3070   -1.3140 n         1 MOL     -0.297600
    133 C43         7.8440    2.4140   -1.9000 c3        1 MOL      0.145167
    134 C44         8.1070    1.0460   -1.2930 c         1 MOL      0.529086
    135 O18         9.1970    0.5140   -1.5040 o         1 MOL     -0.560233
    136 C45         9.1110    3.2580   -2.1250 c3        1 MOL     -0.285182
    137 H62         6.3060    3.8700   -1.9770 hn        1 MOL      0.233209
    138 H63         7.3440    2.2310   -2.8590 h1        1 MOL      0.056833
    139 H64         9.5580    3.6390   -1.2130 hc        1 MOL      0.080279
    140 H65         9.8590    2.8180   -2.7820 hc        1 MOL      0.080279
    141 H66         8.8820    4.2040   -2.6150 hc        1 MOL      0.080279
    142 N13         7.0930    0.4000   -0.7630 n         1 MOL     -0.396448
    143 C46         7.1630   -0.9780   -0.0100 c3        1 MOL      0.493635
    144 C47         6.2560   -2.0640   -0.6320 c         1 MOL      0.076817
    145 O19         5.3540   -1.8020   -1.4350 o         1 MOL     -0.348825
    146 C48         6.8080   -0.6980    1.5070 c3        1 MOL     -0.301252
    147 H67         6.2250    0.9220   -0.7580 hn        1 MOL      0.084881
    148 H68         8.1830   -1.3390    0.0310 h1        1 MOL     -0.020963
    149 H69         7.6680   -0.0960    1.8090 hc        1 MOL      0.083032
    150 H70         5.8640   -0.2120    1.7370 hc        1 MOL      0.083032
    151 H71         6.8970   -1.6150    2.0910 hc        1 MOL      0.083032
    152 N14         6.5930   -3.3300   -0.3300 n         1 MOL     -0.186530
    153 C49         5.9910   -4.5470   -0.8780 c3        1 MOL     -0.218747
    154 C50         6.1750   -4.6930   -2.4470 c         1 MOL      0.455878
    155 O20         5.2870   -5.0680   -3.1960 o         1 MOL     -0.491293
    156 C51         4.5430   -4.7100   -0.2880 c3        1 MOL      0.295859
    157 C52         4.4170   -4.7150    1.2610 c3        1 MOL      0.076265
    158 C53         3.0380   -4.5360    1.7560 c         1 MOL      0.612657
    159 O21         2.7550   -3.5740    2.4720 o         1 MOL     -0.711057
    160 O22         2.2120   -5.4480    1.4910 o         1 MOL     -0.711057
    161 H72         7.3190   -3.5310    0.3410 hn        1 MOL      0.237790
    162 H73         6.6570   -5.3070   -0.4830 h1        1 MOL      0.070375
    163 H74         4.0900   -5.6280   -0.6550 hc        1 MOL     -0.028445
    164 H75         3.9360   -3.9080   -0.6940 hc        1 MOL     -0.028445
    165 H76         4.9760   -3.8860    1.6940 hc        1 MOL     -0.068911
    166 H77         4.8890   -5.6480    1.5860 hc        1 MOL     -0.068911
    167 N15         7.3600   -4.2950   -2.9210 n         1 MOL     -0.246042
    168 C54         7.6500   -4.1770   -4.3520 c3        1 MOL     -0.132232
    169 H78         8.7120   -4.3550   -4.5220 h1        1 MOL      0.082098
    170 H79         7.0660   -4.9130   -4.9040 h1        1 MOL      0.082098
    171 H80         7.3900   -3.1760   -4.6940 h1        1 MOL      0.082098
    172 H81         8.0780   -4.0340   -2.2540 hn        1 MOL      0.208362
    173 Ca1         1.2160   -1.5980    2.9460 Ca        1 MOL      1.740034
    174 O23         1.0010   -2.7950    5.1780 oh        1 MOL     -0.859646
    175 H82         0.8900   -3.7520    5.1680 ho        1 MOL      0.416111
    176 H83         0.9870   -2.5590    6.1090 ho        1 MOL      0.416111
    177 O24         3.1880   -1.1700    0.9740 oh        1 MOL     -0.859646
    178 H84         3.4300   -1.2610    0.0520 ho        1 MOL      0.416111
    179 H85         3.3450   -0.2540    1.1740 ho        1 MOL      0.416111
    180 O25         0.9500    0.8320    1.6100 oh        1 MOL     -0.859646
    181 H86         0.4360    1.4400    2.1470 ho        1 MOL      0.416111
    182 H87         0.6290    0.9730    0.7260 ho        1 MOL      0.416111
    183 O26         0.2230   -4.1820    2.9900 oh        1 MOL     -0.859646
    184 H88        -0.4180   -4.8770    2.9430 ho        1 MOL      0.416111
    185 H89         1.0550   -4.6030    2.7790 ho        1 MOL      0.416111
    186 O27         3.2930   -0.4370    4.4610 oh        1 MOL     -0.859646
    187 H90         3.5060   -1.0010    5.2110 ho        1 MOL      0.416111
    188 H91         4.0150    0.1980    4.4350 ho        1 MOL      0.416111
@<TRIPOS>BOND
     1    1    2 1   
     2    1    4 1   
     3    1    5 1   
     4    1    6 1   
     5    2    3 2   
     6    2    7 1   
     7    7    8 1   
     8    7   15 1   
     9    8    9 1   
    10    8   11 1   
    11    8   16 1   
    12    9   10 2   
    13    9   19 1   
    14   11   12 1   
    15   11   17 1   
    16   11   18 1   
    17   12   13 1   
    18   12   14 1   
    19   19   20 1   
    20   19   28 1   
    21   20   21 1   
    22   20   23 1   
    23   20   29 1   
    24   21   22 2   
    25   21   41 1   
    26   23   24 1   
    27   23   30 1   
    28   23   31 1   
    29   24   25 1   
    30   24   32 1   
    31   24   33 1   
    32   25   26 1   
    33   25   34 1   
    34   25   35 1   
    35   26   27 1   
    36   26   36 1   
    37   26   37 1   
    38   27   38 1   
    39   27   39 1   
    40   27   40 1   
    41   41   42 1   
    42   41   49 1   
    43   42   43 1   
    44   42   45 1   
    45   42   50 1   
    46   43   44 2   
    47   43   53 1   
    48   45   46 1   
    49   45   51 1   
    50   45   52 1   
    51   46   47 1   
    52   46   48 1   
    53   53   54 1   
    54   53   57 1   
    55   54   55 1   
    56   54   58 1   
    57   54   59 1   
    58   55   56 2   
    59   55   60 1   
    60   60   61 1   
    61   60   68 1   
    62   61   62 1   
    63   61   64 1   
    64   61   69 1   
    65   62   63 2   
    66   62   74 1   
    67   64   65 1   
    68   64   70 1   
    69   64   71 1   
    70   65   66 1   
    71   65   67 2   
    72   66   72 1   
    73   66   73 1   
    74   74   75 1   
    75   74   78 1   
    76   75   76 1   
    77   75   79 1   
    78   75   80 1   
    79   76   77 2   
    80   76   81 1   
    81   81   82 1   
    82   81   93 1   
    83   82   83 1   
    84   82   85 1   
    85   82   94 1   
    86   83   84 2   
    87   83  102 1   
    88   85   86 1   
    89   85   95 1   
    90   85   96 1   
    91   86   87 ar  
    92   86   88 ar  
    93   87   89 ar  
    94   87   97 1   
    95   88   90 ar  
    96   88   98 1   
    97   89   91 ar  
    98   89   99 1   
    99   90   91 ar  
   100   90  100 1   
   101   91   92 1   
   102   92  101 1   
   103  102  103 1   
   104  102  110 1   
   105  103  104 1   
   106  103  106 1   
   107  103  111 1   
   108  104  105 2   
   109  104  121 1   
   110  106  107 1   
   111  106  108 1   
   112  106  112 1   
   113  107  109 1   
   114  107  113 1   
   115  107  114 1   
   116  108  115 1   
   117  108  116 1   
   118  108  117 1   
   119  109  118 1   
   120  109  119 1   
   121  109  120 1   
   122  121  122 1   
   123  121  127 1   
   124  122  123 1   
   125  122  125 1   
   126  122  128 1   
   127  123  124 2   
   128  123  132 1   
   129  125  126 1   
   130  125  129 1   
   131  125  130 1   
   132  126  131 1   
   133  132  133 1   
   134  132  137 1   
   135  133  134 1   
   136  133  136 1   
   137  133  138 1   
   138  134  135 2   
   139  134  142 1   
   140  136  139 1   
   141  136  140 1   
   142  136  141 1   
   143  142  143 1   
   144  142  147 1   
   145  143  144 1   
   146  143  146 1   
   147  143  148 1   
   148  144  145 2   
   149  144  152 1   
   150  146  149 1   
   151  146  150 1   
   152  146  151 1   
   153  152  153 1   
   154  152  161 1   
   155  153  154 1   
   156  153  156 1   
   157  153  162 1   
   158  154  155 2   
   159  154  167 1   
   160  156  157 1   
   161  156  163 1   
   162  156  164 1   
   163  157  158 1   
   164  157  165 1   
   165  157  166 1   
   166  158  159 1   
   167  158  160 1   
   168  167  168 1   
   169  167  172 1   
   170  168  169 1   
   171  168  170 1   
   172  168  171 1   
   173  174  175 1   
   174  174  176 1   
   175  177  178 1   
   176  177  179 1   
   177  180  181 1   
   178  180  182 1   
   179  183  184 1   
   180  183  185 1   
   181  186  187 1   
   182  186  188 1   
@<TRIPOS>SUBSTRUCTURE
     1 MOL         1 TEMP              0 ****  ****    0 ROOT
