@<TRIPOS>MOLECULE
MOL
  192   187     1     0     0
SMALL
resp


@<TRIPOS>ATOM
      1 C1          9.0780    1.1480    1.8680 c3        1 MOL     -0.487989
      2 C2          8.0210    0.8470    0.7460 c         1 MOL      0.710195
      3 O1          6.8470    0.8600    1.0020 o         1 MOL     -0.639352
      4 H1          8.5620    1.3700    2.8010 hc        1 MOL      0.124518
      5 H2          9.7190    0.2780    2.0060 hc        1 MOL      0.124518
      6 H3          9.6840    2.0050    1.5760 hc        1 MOL      0.124518
      7 N1          8.4420    0.5930   -0.5120 n         1 MOL     -0.414390
      8 C3          7.6230    0.0600   -1.6390 c3        1 MOL      0.106607
      9 C4          7.3160   -1.4860   -1.5150 c         1 MOL      0.448496
     10 O2          7.8180   -2.3750   -2.2300 o         1 MOL     -0.467044
     11 C5          8.3480    0.3930   -2.9220 c3        1 MOL     -0.231634
     12 C6          9.8010    0.0160   -3.1430 c         1 MOL      0.690858
     13 O3         10.6920    0.3350   -2.2900 o         1 MOL     -0.630585
     14 O4         10.1510   -0.6980   -4.0980 o         1 MOL     -0.630585
     15 H4          9.4010    0.6220   -0.8290 hn        1 MOL      0.168966
     16 H5          6.6950    0.6050   -1.7310 h1        1 MOL      0.073923
     17 H6          8.3720    1.4740   -3.0030 hc        1 MOL      0.066118
     18 H7          7.7450   -0.0120   -3.7270 hc        1 MOL      0.066118
     19 N2          6.4890   -1.7900   -0.5360 n         1 MOL     -0.257756
     20 C7          6.2700   -3.1870    0.0080 c3        1 MOL      0.158282
     21 C8          4.7870   -3.6420    0.0250 c         1 MOL      0.423318
     22 O5          4.4650   -4.6890   -0.5610 o         1 MOL     -0.505946
     23 C9          6.8210   -3.4170    1.4540 c3        1 MOL     -0.129405
     24 C10         8.3540   -3.4450    1.6360 c3        1 MOL      0.027427
     25 C11         8.7270   -3.7070    3.0880 c3        1 MOL     -0.104734
     26 C12        10.2460   -3.9110    3.2890 c3        1 MOL      0.044992
     27 N3         10.5030   -4.3350    4.6570 n4        1 MOL     -0.102914
     28 H8          6.0710   -1.0400   -0.0010 hn        1 MOL      0.084218
     29 H9          6.7140   -3.8990   -0.6990 h1        1 MOL      0.053146
     30 H10         6.4270   -4.3220    1.9160 hc        1 MOL      0.033515
     31 H11         6.3970   -2.6260    2.0810 hc        1 MOL      0.033515
     32 H12         8.9010   -2.5360    1.3930 hc        1 MOL      0.044083
     33 H13         8.8030   -4.1960    0.9900 hc        1 MOL      0.044083
     34 H14         8.3350   -4.6710    3.4110 hc        1 MOL      0.040382
     35 H15         8.4380   -2.9790    3.8430 hc        1 MOL      0.040382
     36 H16        10.7810   -2.9790    3.1070 hx        1 MOL      0.067721
     37 H17        10.5620   -4.6610    2.5570 hx        1 MOL      0.067721
     38 H18        11.4560   -4.6530    4.7900 hn        1 MOL      0.208126
     39 H19        10.4190   -3.5280    5.2690 hn        1 MOL      0.208126
     40 H20         9.8900   -5.0130    5.0940 hn        1 MOL      0.208126
     41 N4          3.7960   -2.9900    0.6600 n         1 MOL     -0.345698
     42 C13         3.7850   -1.7020    1.2800 c3        1 MOL      0.034038
     43 C14         3.7550   -0.4690    0.3020 c         1 MOL      0.576207
     44 O6          3.5950   -0.6230   -0.9150 o         1 MOL     -0.487429
     45 C15         2.5390   -1.7030    2.1930 c3        1 MOL     -0.346416
     46 C16         1.2630   -1.9250    1.4500 c         1 MOL      0.766911
     47 O7          0.7830   -0.9350    0.8180 o         1 MOL     -0.710711
     48 O8          0.8040   -3.0930    1.2340 o         1 MOL     -0.710711
     49 H21         2.9270   -3.4950    0.7300 hn        1 MOL      0.302976
     50 H22         4.5680   -1.5160    2.0200 h1        1 MOL      0.068163
     51 H23         2.4720   -0.7350    2.6740 hc        1 MOL      0.062615
     52 H24         2.6380   -2.4010    3.0300 hc        1 MOL      0.062615
     53 N5          3.8970    0.7480    0.8840 n         1 MOL     -0.368127
     54 C17         4.0410    2.0350    0.1330 c3        1 MOL      0.049238
     55 C18         2.7870    2.5230   -0.5870 c         1 MOL      0.613446
     56 O9          1.6580    2.0150   -0.3580 o         1 MOL     -0.718566
     57 H25         4.1140    0.8770    1.8600 hn        1 MOL      0.262739
     58 H26         4.9170    1.9010   -0.5080 h1        1 MOL      0.071142
     59 H27         4.3410    2.7610    0.8820 h1        1 MOL      0.071142
     60 N6          2.9250    3.7180   -1.3780 n         1 MOL     -0.562133
     61 C19         1.8440    4.5050   -2.0060 c3        1 MOL      0.215783
     62 C20         2.3340    6.0040   -2.1340 c         1 MOL      0.418183
     63 O10         3.5790    6.3330   -2.1720 o         1 MOL     -0.498563
     64 C21         1.6670    3.8380   -3.4440 c3        1 MOL     -0.121710
     65 C22         1.4540    2.3320   -3.4620 c         1 MOL      0.659451
     66 O11         0.3580    1.8470   -3.1020 o         1 MOL     -0.679044
     67 O12         2.3890    1.6110   -3.8590 o         1 MOL     -0.679044
     68 H28         3.8740    4.0750   -1.4400 hn        1 MOL      0.292331
     69 H29         0.9700    4.3990   -1.3710 h1        1 MOL      0.037105
     70 H30         2.4590    4.1620   -4.1190 hc        1 MOL      0.036849
     71 H31         0.7530    4.2000   -3.9170 hc        1 MOL      0.036849
     72 N7          1.3640    6.9250   -2.1080 n         1 MOL     -0.473112
     73 C23        -0.0210    6.6700   -2.3360 c3        1 MOL      0.061374
     74 C24        -0.7860    6.3310   -1.0130 c         1 MOL      0.600842
     75 O13        -0.4060    6.7720    0.0880 o         1 MOL     -0.538912
     76 H32         1.6420    7.8940   -2.0880 hn        1 MOL      0.332012
     77 H33        -0.1240    5.8380   -3.0300 h1        1 MOL      0.042061
     78 H34        -0.5070    7.5490   -2.7770 h1        1 MOL      0.042061
     79 N8         -1.9070    5.6920   -1.1320 n         1 MOL     -0.655955
     80 C25        -2.6540    5.0330   -0.0870 c3        1 MOL      0.211234
     81 C26        -1.8720    3.8280    0.4750 c         1 MOL      0.897097
     82 O14        -1.2790    2.9590   -0.2460 o         1 MOL     -0.801486
     83 C27        -4.0130    4.5970   -0.6110 c3        1 MOL      0.287653
     84 C28        -4.9540    4.2230    0.5660 c3        1 MOL     -0.378657
     85 O15        -3.9550    3.4700   -1.4730 oh        1 MOL     -0.590365
     86 H35        -2.1470    5.3940   -2.0670 hn        1 MOL      0.282313
     87 H36        -2.7850    5.7210    0.7540 h1        1 MOL      0.023547
     88 H37        -4.3780    5.5080   -1.0760 h1        1 MOL      0.019456
     89 H38        -3.6900    3.7290   -2.3630 ho        1 MOL      0.414256
     90 H39        -4.9920    5.0550    1.2800 hc        1 MOL      0.091501
     91 H40        -5.9090    3.9690    0.1170 hc        1 MOL      0.091501
     92 H41        -4.5920    3.3450    1.0950 hc        1 MOL      0.091501
     93 N9         -1.9280    3.7320    1.8090 n         1 MOL     -0.627792
     94 C29        -1.2050    2.7500    2.6300 c3        1 MOL      0.183284
     95 C30        -1.6740    1.2820    2.4080 c         1 MOL      0.299132
     96 O16        -1.4590    0.7210    1.3570 o         1 MOL     -0.483439
     97 C31         0.3380    2.8700    2.5100 c3        1 MOL      0.113644
     98 C32         0.8940    4.2290    2.8750 c3        1 MOL      0.005394
     99 C33         1.1340    1.8580    3.4110 c3        1 MOL     -0.620845
    100 C34         0.7960    4.6710    4.3520 c3        1 MOL     -0.514101
    101 H42        -2.2430    4.5130    2.3630 hn        1 MOL      0.286913
    102 H43        -1.4820    3.0410    3.6450 h1        1 MOL      0.044895
    103 H44         0.5650    2.7320    1.4570 hc        1 MOL      0.107602
    104 H45         0.3610    4.9570    2.2810 hc        1 MOL      0.045346
    105 H46         1.9460    4.2800    2.5770 hc        1 MOL      0.045346
    106 H47         0.8090    1.9370    4.4450 hc        1 MOL      0.163576
    107 H48         0.8990    0.8480    3.0820 hc        1 MOL      0.163576
    108 H49         2.1750    2.1800    3.2860 hc        1 MOL      0.163576
    109 H50        -0.1780    4.4200    4.7720 hc        1 MOL      0.133247
    110 H51         1.6370    4.1690    4.8200 hc        1 MOL      0.133247
    111 H52         1.0190    5.7350    4.4530 hc        1 MOL      0.133247
    112 N10        -2.0580    0.6010    3.4550 n         1 MOL     -0.250850
    113 C35        -2.4730   -0.8210    3.4070 c3        1 MOL     -0.054472
    114 C36        -3.8680   -0.9680    2.7690 c         1 MOL      0.649419
    115 O17        -4.2750   -2.0980    2.5090 o         1 MOL     -0.567301
    116 C37        -2.3450   -1.3320    4.8640 c3        1 MOL      0.371532
    117 C38        -2.8080   -2.7640    5.2550 c3        1 MOL     -0.395301
    118 O18        -3.1670   -0.5450    5.6530 oh        1 MOL     -0.657353
    119 H53        -2.0980    1.0460    4.3610 hn        1 MOL      0.177513
    120 H54        -1.7500   -1.3710    2.7990 h1        1 MOL      0.094438
    121 H55        -1.3080   -1.2990    5.1990 h1        1 MOL      0.012368
    122 H56        -2.8960   -0.5460    6.5730 ho        1 MOL      0.413270
    123 H57        -3.8620   -2.9590    5.0500 hc        1 MOL      0.107248
    124 H58        -2.1440   -3.4520    4.7260 hc        1 MOL      0.107248
    125 H59        -2.7240   -2.8970    6.3280 hc        1 MOL      0.107248
    126 N11        -4.5700    0.1210    2.4850 n         1 MOL     -0.355509
    127 C39        -5.9950    0.0400    2.1630 c3        1 MOL     -0.100607
    128 C40        -6.0510   -0.4650    0.6800 c         1 MOL      0.430568
    129 O19        -5.3500    0.0790   -0.2070 o         1 MOL     -0.491759
    130 C41        -6.7270    1.4560    2.1950 c3        1 MOL      0.261107
    131 C42        -8.1940    1.2880    1.9070 c3        1 MOL     -0.276749
    132 O20        -6.6710    1.8830    3.4910 oh        1 MOL     -0.504386
    133 H60        -4.1780    0.9930    2.8300 hn        1 MOL      0.199727
    134 H61        -6.4000   -0.7390    2.7960 h1        1 MOL      0.094447
    135 H62        -6.2180    2.0540    1.4450 h1        1 MOL      0.062811
    136 H63        -5.7710    2.2150    3.5490 ho        1 MOL      0.337179
    137 H64        -8.3060    1.0320    0.8550 hc        1 MOL      0.079896
    138 H65        -8.6760    0.6530    2.6570 hc        1 MOL      0.079896
    139 H66        -8.7030    2.2330    2.0830 hc        1 MOL      0.079896
    140 N12        -6.7820   -1.5640    0.5320 n         1 MOL     -0.194054
    141 C43        -7.0470   -2.4110   -0.6070 c3        1 MOL      0.097770
    142 C44        -5.8150   -2.5940   -1.5120 c         1 MOL      0.458070
    143 O21        -5.9120   -2.3140   -2.7390 o         1 MOL     -0.519270
    144 C45        -8.2600   -1.8850   -1.4320 c3        1 MOL     -0.363621
    145 C46        -9.5700   -1.8900   -0.5850 c3        1 MOL      0.207992
    146 C47       -10.7610   -1.4150   -1.3750 c3        1 MOL     -0.264647
    147 C48       -12.0540   -1.6130   -0.6440 c3        1 MOL      0.183490
    148 N13       -13.2640   -1.2210   -1.4350 n4        1 MOL     -0.207176
    149 H67        -7.1500   -1.9570    1.3870 hn        1 MOL      0.192935
    150 H68        -7.3360   -3.3680   -0.1880 h1        1 MOL      0.044973
    151 H69        -8.4370   -2.5960   -2.2440 hc        1 MOL      0.133799
    152 H70        -8.0610   -0.9130   -1.8690 hc        1 MOL      0.133799
    153 H71        -9.3710   -1.2170    0.2450 hc        1 MOL     -0.025975
    154 H72        -9.7930   -2.8670   -0.1520 hc        1 MOL     -0.025975
    155 H73       -10.7920   -2.0480   -2.2610 hc        1 MOL      0.086336
    156 H74       -10.5670   -0.3830   -1.6560 hc        1 MOL      0.086336
    157 H75       -12.0380   -1.0670    0.2940 hx        1 MOL      0.034552
    158 H76       -12.1440   -2.6210   -0.2420 hx        1 MOL      0.034552
    159 H77       -13.5670   -1.9070   -2.1090 hn        1 MOL      0.196876
    160 H78       -14.0790   -0.9300   -0.9210 hn        1 MOL      0.196876
    161 H79       -13.0810   -0.3910   -1.9720 hn        1 MOL      0.196876
    162 N14        -4.7520   -3.1580   -0.9690 n         1 MOL     -0.401978
    163 C49        -3.4730   -3.3070   -1.6470 c3        1 MOL      0.337659
    164 C50        -2.2940   -2.9390   -0.6860 c         1 MOL      0.307546
    165 O22        -1.7590   -1.8000   -0.7020 o         1 MOL     -0.598170
    166 C51        -3.3540   -4.6610   -2.3090 c3        1 MOL     -0.006652
    167 C52        -3.7160   -4.7450   -3.7620 c3        1 MOL     -0.291830
    168 C53        -3.3560   -6.1820   -4.1800 c         1 MOL      0.648811
    169 O23        -3.9580   -7.1000   -3.5760 o         1 MOL     -0.596131
    170 O24        -2.3640   -6.5100   -4.9460 o         1 MOL     -0.596131
    171 H80        -4.8440   -3.5730   -0.0580 hn        1 MOL      0.244941
    172 H81        -3.5080   -2.5790   -2.4550 h1        1 MOL      0.049740
    173 H82        -4.0150   -5.3610   -1.8230 hc        1 MOL      0.041472
    174 H83        -2.3150   -4.9850   -2.3120 hc        1 MOL      0.041472
    175 H84        -3.0760   -4.0700   -4.3350 hc        1 MOL      0.057964
    176 H85        -4.7850   -4.5910   -3.9080 hc        1 MOL      0.057964
    177 N15        -1.8230   -3.8100    0.2410 n         1 MOL     -0.310686
    178 C54        -2.2630   -5.1420    0.6400 c3        1 MOL      0.030938
    179 H86        -2.7970   -5.6110   -0.1870 h1        1 MOL      0.019402
    180 H87        -1.3960   -5.7500    0.9020 h1        1 MOL      0.019402
    181 H88        -2.9250   -5.0640    1.5010 h1        1 MOL      0.019402
    182 H89        -1.0390   -3.4290    0.7590 hn        1 MOL      0.369747
    183 Ca1        -0.4040    0.4390   -1.0230 Ca        1 MOL      1.822641
    184 O25         1.5620   -0.6150   -2.5970 oh        1 MOL     -0.867774
    185 H90         1.7410   -0.1450   -3.4090 ho        1 MOL      0.419115
    186 H91         2.3440   -0.4640   -2.0570 ho        1 MOL      0.419115
    187 O26        -1.3500   -0.7620   -3.4660 oh        1 MOL     -0.867774
    188 H92        -0.8600   -1.5600   -3.6500 ho        1 MOL      0.419115
    189 H93        -1.5500   -0.4010   -4.3270 ho        1 MOL      0.419115
    190 O27        -2.9110    1.0220   -1.3110 oh        1 MOL     -0.867774
    191 H94        -3.2110    1.9350   -1.2110 ho        1 MOL      0.419115
    192 H95        -3.6030    0.5060   -0.9010 ho        1 MOL      0.419115
@<TRIPOS>BOND
     1    1    2 1   
     2    1    4 1   
     3    1    5 1   
     4    1    6 1   
     5    2    3 2   
     6    2    7 1   
     7    7    8 1   
     8    7   15 1   
     9    8    9 1   
    10    8   11 1   
    11    8   16 1   
    12    9   10 2   
    13    9   19 1   
    14   11   12 1   
    15   11   17 1   
    16   11   18 1   
    17   12   13 1   
    18   12   14 1   
    19   19   20 1   
    20   19   28 1   
    21   20   21 1   
    22   20   23 1   
    23   20   29 1   
    24   21   22 2   
    25   21   41 1   
    26   23   24 1   
    27   23   30 1   
    28   23   31 1   
    29   24   25 1   
    30   24   32 1   
    31   24   33 1   
    32   25   26 1   
    33   25   34 1   
    34   25   35 1   
    35   26   27 1   
    36   26   36 1   
    37   26   37 1   
    38   27   38 1   
    39   27   39 1   
    40   27   40 1   
    41   41   42 1   
    42   41   49 1   
    43   42   43 1   
    44   42   45 1   
    45   42   50 1   
    46   43   44 2   
    47   43   53 1   
    48   45   46 1   
    49   45   51 1   
    50   45   52 1   
    51   46   47 1   
    52   46   48 1   
    53   53   54 1   
    54   53   57 1   
    55   54   55 1   
    56   54   58 1   
    57   54   59 1   
    58   55   56 2   
    59   55   60 1   
    60   60   61 1   
    61   60   68 1   
    62   61   62 1   
    63   61   64 1   
    64   61   69 1   
    65   62   63 2   
    66   62   72 1   
    67   64   65 1   
    68   64   70 1   
    69   64   71 1   
    70   65   66 1   
    71   65   67 1   
    72   72   73 1   
    73   72   76 1   
    74   73   74 1   
    75   73   77 1   
    76   73   78 1   
    77   74   75 2   
    78   74   79 1   
    79   79   80 1   
    80   79   86 1   
    81   80   81 1   
    82   80   83 1   
    83   80   87 1   
    84   81   82 2   
    85   81   93 1   
    86   83   84 1   
    87   83   85 1   
    88   83   88 1   
    89   84   90 1   
    90   84   91 1   
    91   84   92 1   
    92   85   89 1   
    93   93   94 1   
    94   93  101 1   
    95   94   95 1   
    96   94   97 1   
    97   94  102 1   
    98   95   96 2   
    99   95  112 1   
   100   97   98 1   
   101   97   99 1   
   102   97  103 1   
   103   98  100 1   
   104   98  104 1   
   105   98  105 1   
   106   99  106 1   
   107   99  107 1   
   108   99  108 1   
   109  100  109 1   
   110  100  110 1   
   111  100  111 1   
   112  112  113 1   
   113  112  119 1   
   114  113  114 1   
   115  113  116 1   
   116  113  120 1   
   117  114  115 2   
   118  114  126 1   
   119  116  117 1   
   120  116  118 1   
   121  116  121 1   
   122  117  123 1   
   123  117  124 1   
   124  117  125 1   
   125  118  122 1   
   126  126  127 1   
   127  126  133 1   
   128  127  128 1   
   129  127  130 1   
   130  127  134 1   
   131  128  129 2   
   132  128  140 1   
   133  130  131 1   
   134  130  132 1   
   135  130  135 1   
   136  131  137 1   
   137  131  138 1   
   138  131  139 1   
   139  132  136 1   
   140  140  141 1   
   141  140  149 1   
   142  141  142 1   
   143  141  144 1   
   144  141  150 1   
   145  142  143 2   
   146  142  162 1   
   147  144  145 1   
   148  144  151 1   
   149  144  152 1   
   150  145  146 1   
   151  145  153 1   
   152  145  154 1   
   153  146  147 1   
   154  146  155 1   
   155  146  156 1   
   156  147  148 1   
   157  147  157 1   
   158  147  158 1   
   159  148  159 1   
   160  148  160 1   
   161  148  161 1   
   162  162  163 1   
   163  162  171 1   
   164  163  164 1   
   165  163  166 1   
   166  163  172 1   
   167  164  165 2   
   168  164  177 1   
   169  166  167 1   
   170  166  173 1   
   171  166  174 1   
   172  167  168 1   
   173  167  175 1   
   174  167  176 1   
   175  168  169 1   
   176  168  170 1   
   177  177  178 1   
   178  177  182 1   
   179  178  179 1   
   180  178  180 1   
   181  178  181 1   
   182  184  185 1   
   183  184  186 1   
   184  187  188 1   
   185  187  189 1   
   186  190  191 1   
   187  190  192 1   
@<TRIPOS>SUBSTRUCTURE
     1 MOL         1 TEMP              0 ****  ****    0 ROOT
