@<TRIPOS>MOLECULE
MOL
  185   180     1     0     0
SMALL
resp


@<TRIPOS>ATOM
      1 C1         -5.0640    2.3580   -2.5700 c3        1 MOL     -0.521685
      2 C2         -6.0460    2.4360   -1.3940 c         1 MOL      0.766804
      3 O1         -5.9400    1.6440   -0.4600 o         1 MOL     -0.522066
      4 H1         -4.2210    1.7230   -2.2970 hc        1 MOL      0.132967
      5 H2         -5.5690    1.9360   -3.4380 hc        1 MOL      0.132967
      6 H3         -4.7030    3.3580   -2.8100 hc        1 MOL      0.132967
      7 N1         -7.1510    3.2090   -1.4690 n         1 MOL     -0.569109
      8 C3         -8.3900    3.0420   -0.6950 c3        1 MOL     -0.030520
      9 C4         -8.9540    1.6070   -0.5560 c         1 MOL      0.662879
     10 O2         -9.9580    1.4030    0.0640 o         1 MOL     -0.534234
     11 C5         -8.3590    3.6960    0.6990 c3        1 MOL     -0.207335
     12 C6         -7.6680    5.0770    0.6710 c         1 MOL      0.694042
     13 O3         -6.9050    5.4200    1.6430 o         1 MOL     -0.642094
     14 O4         -7.9180    5.9330   -0.2460 o         1 MOL     -0.642094
     15 H4         -7.2520    3.7580   -2.3150 hn        1 MOL      0.317115
     16 H5         -9.0580    3.6010   -1.3450 h1        1 MOL      0.096365
     17 H6         -7.9590    3.0490    1.4780 hc        1 MOL      0.075059
     18 H7         -9.4040    3.9490    0.8960 hc        1 MOL      0.075059
     19 N2         -8.3900    0.6590   -1.3630 n         1 MOL     -0.647080
     20 C7         -8.8030   -0.8380   -1.3650 c3        1 MOL      0.396215
     21 C8         -7.7220   -1.8190   -0.9420 c         1 MOL      0.330003
     22 O5         -7.9400   -3.0370   -0.7510 o         1 MOL     -0.590302
     23 C9         -9.6090   -1.2490   -2.6050 c3        1 MOL     -0.168250
     24 C10       -10.4390   -2.4840   -2.2880 c3        1 MOL      0.003919
     25 C11       -11.5630   -2.6340   -3.2820 c3        1 MOL     -0.036599
     26 C12       -12.2400   -3.9620   -2.8450 c3        1 MOL     -0.105186
     27 N3        -13.0510   -4.4450   -3.9700 n4        1 MOL     -0.117303
     28 H8         -7.5360    0.8470   -1.8650 hn        1 MOL      0.250885
     29 H9         -9.4930   -0.8790   -0.5200 h1        1 MOL      0.050528
     30 H10        -8.9240   -1.3540   -3.4480 hc        1 MOL      0.030887
     31 H11       -10.3000   -0.4320   -2.8200 hc        1 MOL      0.030887
     32 H12       -10.9140   -2.2330   -1.3410 hc        1 MOL      0.044756
     33 H13        -9.8730   -3.4060   -2.2060 hc        1 MOL      0.044756
     34 H14       -11.2990   -2.8600   -4.3080 hc        1 MOL      0.046711
     35 H15       -12.2220   -1.7730   -3.1430 hc        1 MOL      0.046711
     36 H16       -12.8210   -3.6460   -1.9740 hx        1 MOL      0.110464
     37 H17       -11.4570   -4.6820   -2.6020 hx        1 MOL      0.110464
     38 H18       -13.8030   -3.8090   -4.2260 hn        1 MOL      0.209720
     39 H19       -12.4930   -4.7070   -4.7640 hn        1 MOL      0.209720
     40 H20       -13.5490   -5.2830   -3.7180 hn        1 MOL      0.209720
     41 N4         -6.5680   -1.3540   -0.6080 n         1 MOL     -0.199254
     42 C13        -5.3570   -2.0730   -0.1330 c3        1 MOL     -0.150423
     43 C14        -5.3940   -2.2510    1.3950 c         1 MOL      0.584285
     44 O6         -6.1110   -1.4860    2.0560 o         1 MOL     -0.485627
     45 C15        -4.1540   -1.2670   -0.5960 c3        1 MOL      0.027717
     46 C16        -2.8440   -1.9520   -0.3190 c         1 MOL      0.574519
     47 O7         -2.1330   -2.3640   -1.2360 o         1 MOL     -0.673557
     48 O8         -2.4150   -2.1310    0.8290 o         1 MOL     -0.673557
     49 H21        -6.5700   -0.3420   -0.6090 hn        1 MOL      0.194251
     50 H22        -5.3040   -3.0790   -0.5550 h1        1 MOL      0.121706
     51 H23        -4.0900   -0.3050   -0.1020 hc        1 MOL      0.014523
     52 H24        -4.2290   -1.0850   -1.6770 hc        1 MOL      0.014523
     53 N5         -4.7880   -3.2930    2.0040 n         1 MOL     -0.350411
     54 C17        -4.6890   -3.4320    3.5220 c3        1 MOL      0.009482
     55 C18        -3.9070   -2.3870    4.2530 c         1 MOL      0.429717
     56 O9         -4.2550   -2.2140    5.4290 o         1 MOL     -0.547146
     57 H25        -4.4940   -4.0980    1.4730 hn        1 MOL      0.197756
     58 H26        -4.2700   -4.4280    3.6660 h1        1 MOL      0.063481
     59 H27        -5.7200   -3.5460    3.8670 h1        1 MOL      0.063481
     60 N6         -2.9020   -1.7190    3.6880 n         1 MOL     -0.069242
     61 C19        -2.1790   -0.5380    4.2160 c3        1 MOL      0.037757
     62 C20        -2.0250    0.7010    3.3350 c         1 MOL      0.363307
     63 O10        -1.8160    1.7940    3.8250 o         1 MOL     -0.494912
     64 C21        -0.8640   -1.0610    4.8080 c3        1 MOL     -0.307765
     65 C22         0.1670   -1.3520    3.7400 c         1 MOL      0.775156
     66 N7          1.3560   -0.8310    4.0070 n         1 MOL     -0.806623
     67 O11         0.0490   -2.1610    2.7900 o         1 MOL     -0.604344
     68 H28        -2.7460   -1.9440    2.7030 hn        1 MOL     -0.082568
     69 H29        -2.7790   -0.2030    5.0610 h1        1 MOL      0.107724
     70 H30        -0.9840   -1.9970    5.3380 hc        1 MOL      0.091970
     71 H31        -0.4920   -0.2570    5.4480 hc        1 MOL      0.091970
     72 H32         1.5450   -0.1560    4.7350 hn        1 MOL      0.376193
     73 H33         2.1090   -0.8990    3.3410 hn        1 MOL      0.376193
     74 N8         -1.9490    0.4540    2.0440 n         1 MOL     -0.047313
     75 C23        -1.5450    1.4230    1.0170 c3        1 MOL     -0.367674
     76 C24        -0.0380    1.8780    0.9780 c         1 MOL      0.619165
     77 O12         0.8390    1.2180    1.5710 o         1 MOL     -0.517919
     78 H34        -2.2370   -0.4820    1.7730 hn        1 MOL      0.197305
     79 H35        -2.1930    2.2880    1.1780 h1        1 MOL      0.146360
     80 H36        -1.8170    1.0610    0.0230 h1        1 MOL      0.146360
     81 N9          0.1800    3.0080    0.3170 n         1 MOL     -0.468086
     82 C25         1.5320    3.5740    0.0170 c3        1 MOL      0.017043
     83 C26         2.5460    2.5470   -0.5390 c         1 MOL      0.603148
     84 O13         2.1860    1.4340   -0.9320 o         1 MOL     -0.517225
     85 C27         1.2920    4.8020   -0.8910 c3        1 MOL     -0.071965
     86 C28         0.2190    5.7880   -0.5440 ca        1 MOL      0.089055
     87 C29        -0.8340    5.9890   -1.4000 ca        1 MOL     -0.248294
     88 C30         0.4340    6.6250    0.5700 ca        1 MOL     -0.248294
     89 C31        -1.8700    6.8720   -1.1120 ca        1 MOL     -0.103572
     90 C32        -0.5690    7.5160    0.8910 ca        1 MOL     -0.103572
     91 C33        -1.7490    7.6590    0.0700 ca        1 MOL      0.194040
     92 O14        -2.8110    8.4870    0.3430 oh        1 MOL     -0.433685
     93 H37        -0.5990    3.5190   -0.0780 hn        1 MOL      0.308804
     94 H38         1.9850    3.9470    0.9320 h1        1 MOL      0.073840
     95 H39         1.1340    4.4770   -1.9160 hc        1 MOL      0.054849
     96 H40         2.2290    5.3740   -0.8920 hc        1 MOL      0.054849
     97 H41        -0.8490    5.3820   -2.2940 ha        1 MOL      0.140893
     98 H42         1.3710    6.6180    1.1150 ha        1 MOL      0.140893
     99 H43        -2.7480    6.9650   -1.7260 ha        1 MOL      0.122300
    100 H44        -0.3660    8.2100    1.6960 ha        1 MOL      0.122300
    101 H45        -2.7940    8.8330    1.2370 ho        1 MOL      0.374938
    102 N10         3.7690    3.0210   -0.7930 n         1 MOL     -0.646962
    103 C34         4.8710    2.2780   -1.4660 c3        1 MOL      0.033187
    104 C35         5.8830    1.8440   -0.4270 c         1 MOL      0.625009
    105 O15         6.0230    0.6560   -0.1520 o         1 MOL     -0.479477
    106 C36         5.5660    3.0820   -2.6190 c3        1 MOL      0.129622
    107 C37         4.5820    3.7630   -3.5800 c3        1 MOL      0.284056
    108 C38         6.5830    2.2020   -3.2900 c3        1 MOL     -0.276540
    109 C39         3.5260    2.8870   -4.3170 c3        1 MOL     -0.358528
    110 H46         3.8990    3.9920   -0.5450 hn        1 MOL      0.266561
    111 H47         4.4510    1.3580   -1.8900 h1        1 MOL      0.086921
    112 H48         6.1930    3.8600   -2.1810 hc        1 MOL     -0.052239
    113 H49         5.2290    4.3070   -4.2650 hc        1 MOL     -0.070319
    114 H50         4.0800    4.6010   -3.0830 hc        1 MOL     -0.070319
    115 H51         7.3360    1.8570   -2.5800 hc        1 MOL      0.072062
    116 H52         6.0980    1.3400   -3.7490 hc        1 MOL      0.072062
    117 H53         7.0620    2.7040   -4.1330 hc        1 MOL      0.072062
    118 H54         3.0230    3.5890   -4.9890 hc        1 MOL      0.093775
    119 H55         3.9960    2.0300   -4.8100 hc        1 MOL      0.093775
    120 H56         2.7780    2.5260   -3.6140 hc        1 MOL      0.093775
    121 N11         6.4770    2.8110    0.3220 n         1 MOL     -0.315537
    122 C40         7.5280    2.6670    1.2760 c3        1 MOL     -0.399032
    123 C41         8.8190    1.9430    0.8370 c         1 MOL      0.562728
    124 O16         9.5410    1.4630    1.7060 o         1 MOL     -0.484393
    125 C42         7.8320    4.0610    1.8500 c3        1 MOL      0.198479
    126 O17         8.4400    4.7830    0.7990 oh        1 MOL     -0.632874
    127 H57         6.1430    3.7590    0.1660 hn        1 MOL      0.320137
    128 H58         7.0300    2.2520    2.1530 h1        1 MOL      0.168535
    129 H59         8.5720    4.0470    2.6500 h1        1 MOL      0.053152
    130 H60         6.9870    4.6490    2.1820 h1        1 MOL      0.053152
    131 H61         9.2020    5.2360    1.1890 ho        1 MOL      0.419927
    132 N12         9.1630    1.8580   -0.4700 n         1 MOL     -0.246479
    133 C43        10.1940    0.9830   -1.0140 c3        1 MOL      0.144940
    134 C44         9.9810   -0.5410   -0.4720 c         1 MOL      0.457107
    135 O18        10.9670   -1.2500   -0.2030 o         1 MOL     -0.511435
    136 C45        11.6340    1.5180   -0.8240 c3        1 MOL     -0.372799
    137 H62         8.7360    2.5860   -1.0400 hn        1 MOL      0.220743
    138 H63         9.9750    0.9400   -2.0860 h1        1 MOL      0.036370
    139 H64        12.2730    0.9610   -1.5230 hc        1 MOL      0.106951
    140 H65        11.6970    2.5980   -0.9410 hc        1 MOL      0.106951
    141 H66        11.9630    1.1140    0.1250 hc        1 MOL      0.106951
    142 N13         8.7410   -0.9830   -0.2510 n         1 MOL     -0.347179
    143 C46         8.2040   -2.1040    0.4730 c3        1 MOL      0.333059
    144 C47         7.1490   -2.8640   -0.3050 c         1 MOL      0.478630
    145 O19         6.6160   -2.2910   -1.2510 o         1 MOL     -0.464111
    146 C48         7.7440   -1.5980    1.8120 c3        1 MOL     -0.270115
    147 H67         8.0540   -0.3020   -0.5450 hn        1 MOL      0.045783
    148 H68         9.0710   -2.7610    0.5680 h1        1 MOL     -0.015331
    149 H69         7.2250   -2.3410    2.4120 hc        1 MOL      0.078894
    150 H70         8.5940   -1.3090    2.4180 hc        1 MOL      0.078894
    151 H71         7.0930   -0.7260    1.7990 hc        1 MOL      0.078894
    152 N14         6.8870   -4.1410    0.0040 n         1 MOL     -0.441439
    153 C49         6.0160   -5.0550   -0.8250 c3        1 MOL     -0.025339
    154 C50         6.4260   -5.0650   -2.2770 c         1 MOL      0.327629
    155 O20         5.5910   -5.2510   -3.1860 o         1 MOL     -0.473644
    156 C51         4.5270   -4.7250   -0.6110 c3        1 MOL      0.283293
    157 C52         4.1900   -5.0540    0.7890 c3        1 MOL     -0.155671
    158 C53         2.7320   -4.6140    0.9310 c         1 MOL      0.715667
    159 O21         1.8050   -5.4240    0.7310 o         1 MOL     -0.777073
    160 O22         2.4400   -3.4460    1.1680 o         1 MOL     -0.777073
    161 H72         7.3030   -4.4680    0.8610 hn        1 MOL      0.250837
    162 H73         6.1940   -6.0790   -0.5150 h1        1 MOL      0.095330
    163 H74         3.9270   -5.2950   -1.3230 hc        1 MOL     -0.025730
    164 H75         4.3140   -3.6750   -0.8110 hc        1 MOL     -0.025730
    165 H76         4.7780   -4.4030    1.4400 hc        1 MOL      0.004333
    166 H77         4.3830   -6.1120    0.9870 hc        1 MOL      0.004333
    167 N15         7.7170   -4.7680   -2.6730 n         1 MOL     -0.307525
    168 C54         8.0440   -4.4320   -4.0610 c3        1 MOL      0.036488
    169 H78         8.9310   -4.9860   -4.3690 h1        1 MOL      0.040230
    170 H79         7.2080   -4.6970   -4.7070 h1        1 MOL      0.040230
    171 H80         8.2400   -3.3620   -4.1400 h1        1 MOL      0.040230
    172 H81         8.3920   -4.6250   -1.9230 hn        1 MOL      0.215663
    173 Ca1        -0.1710   -3.4430    0.4420 Ca        1 MOL      1.731591
    174 O23        -1.5310   -5.4560   -0.7980 oh        1 MOL     -0.791279
    175 H82        -2.2640   -5.5910   -1.4010 ho        1 MOL      0.400184
    176 H83        -1.5700   -6.2100   -0.2070 ho        1 MOL      0.400184
    177 O24        -1.0900   -4.9950    2.3720 oh        1 MOL     -0.791279
    178 O25         1.0040   -3.5250   -2.0090 oh        1 MOL     -0.791279
    179 H84        -1.5460   -4.8160    3.1960 ho        1 MOL      0.400184
    180 H85         1.4220   -4.2120   -2.5270 ho        1 MOL      0.400184
    181 H86        -1.2740   -5.9150    2.1900 ho        1 MOL      0.400184
    182 H87         1.2740   -2.7100   -2.4250 ho        1 MOL      0.400184
    183 O26         0.7930   -0.9480    0.0080 oh        1 MOL     -0.791279
    184 H88         1.1970   -0.6730   -0.8160 ho        1 MOL      0.400184
    185 H89         1.2270   -0.4210    0.6750 ho        1 MOL      0.400184
@<TRIPOS>BOND
     1    1    2 1   
     2    1    4 1   
     3    1    5 1   
     4    1    6 1   
     5    2    3 2   
     6    2    7 1   
     7    7    8 1   
     8    7   15 1   
     9    8    9 1   
    10    8   11 1   
    11    8   16 1   
    12    9   10 2   
    13    9   19 1   
    14   11   12 1   
    15   11   17 1   
    16   11   18 1   
    17   12   13 1   
    18   12   14 1   
    19   19   20 1   
    20   19   28 1   
    21   20   21 1   
    22   20   23 1   
    23   20   29 1   
    24   21   22 2   
    25   21   41 1   
    26   23   24 1   
    27   23   30 1   
    28   23   31 1   
    29   24   25 1   
    30   24   32 1   
    31   24   33 1   
    32   25   26 1   
    33   25   34 1   
    34   25   35 1   
    35   26   27 1   
    36   26   36 1   
    37   26   37 1   
    38   27   38 1   
    39   27   39 1   
    40   27   40 1   
    41   41   42 1   
    42   41   49 1   
    43   42   43 1   
    44   42   45 1   
    45   42   50 1   
    46   43   44 2   
    47   43   53 1   
    48   45   46 1   
    49   45   51 1   
    50   45   52 1   
    51   46   47 1   
    52   46   48 1   
    53   53   54 1   
    54   53   57 1   
    55   54   55 1   
    56   54   58 1   
    57   54   59 1   
    58   55   56 2   
    59   55   60 1   
    60   60   61 1   
    61   60   68 1   
    62   61   62 1   
    63   61   64 1   
    64   61   69 1   
    65   62   63 2   
    66   62   74 1   
    67   64   65 1   
    68   64   70 1   
    69   64   71 1   
    70   65   66 1   
    71   65   67 2   
    72   66   72 1   
    73   66   73 1   
    74   74   75 1   
    75   74   78 1   
    76   75   76 1   
    77   75   79 1   
    78   75   80 1   
    79   76   77 2   
    80   76   81 1   
    81   81   82 1   
    82   81   93 1   
    83   82   83 1   
    84   82   85 1   
    85   82   94 1   
    86   83   84 2   
    87   83  102 1   
    88   85   86 1   
    89   85   95 1   
    90   85   96 1   
    91   86   87 ar  
    92   86   88 ar  
    93   87   89 ar  
    94   87   97 1   
    95   88   90 ar  
    96   88   98 1   
    97   89   91 ar  
    98   89   99 1   
    99   90   91 ar  
   100   90  100 1   
   101   91   92 1   
   102   92  101 1   
   103  102  103 1   
   104  102  110 1   
   105  103  104 1   
   106  103  106 1   
   107  103  111 1   
   108  104  105 2   
   109  104  121 1   
   110  106  107 1   
   111  106  108 1   
   112  106  112 1   
   113  107  109 1   
   114  107  113 1   
   115  107  114 1   
   116  108  115 1   
   117  108  116 1   
   118  108  117 1   
   119  109  118 1   
   120  109  119 1   
   121  109  120 1   
   122  121  122 1   
   123  121  127 1   
   124  122  123 1   
   125  122  125 1   
   126  122  128 1   
   127  123  124 2   
   128  123  132 1   
   129  125  126 1   
   130  125  129 1   
   131  125  130 1   
   132  126  131 1   
   133  132  133 1   
   134  132  137 1   
   135  133  134 1   
   136  133  136 1   
   137  133  138 1   
   138  134  135 2   
   139  134  142 1   
   140  136  139 1   
   141  136  140 1   
   142  136  141 1   
   143  142  143 1   
   144  142  147 1   
   145  143  144 1   
   146  143  146 1   
   147  143  148 1   
   148  144  145 2   
   149  144  152 1   
   150  146  149 1   
   151  146  150 1   
   152  146  151 1   
   153  152  153 1   
   154  152  161 1   
   155  153  154 1   
   156  153  156 1   
   157  153  162 1   
   158  154  155 2   
   159  154  167 1   
   160  156  157 1   
   161  156  163 1   
   162  156  164 1   
   163  157  158 1   
   164  157  165 1   
   165  157  166 1   
   166  158  159 1   
   167  158  160 1   
   168  167  168 1   
   169  167  172 1   
   170  168  169 1   
   171  168  170 1   
   172  168  171 1   
   173  174  175 1   
   174  174  176 1   
   175  177  179 1   
   176  177  181 1   
   177  178  180 1   
   178  178  182 1   
   179  183  184 1   
   180  183  185 1   
@<TRIPOS>SUBSTRUCTURE
     1 MOL         1 TEMP              0 ****  ****    0 ROOT
