@<TRIPOS>MOLECULE
MOL
  195   189     1     0     0
SMALL
resp


@<TRIPOS>ATOM
      1 C1         10.7450   -6.1240    2.3750 c3        1 MOL     -0.326761
      2 C2         10.5780   -4.7210    1.7070 c         1 MOL      0.648747
      3 O1         10.8300   -3.7130    2.3760 o         1 MOL     -0.618673
      4 H1         10.5990   -6.0330    3.4510 hc        1 MOL      0.085238
      5 H2         10.0060   -6.8130    1.9660 hc        1 MOL      0.085238
      6 H3         11.7470   -6.5050    2.1750 hc        1 MOL      0.085238
      7 N1         10.1530   -4.6920    0.4830 n         1 MOL     -0.081549
      8 C3          9.9690   -3.4010   -0.2090 c3        1 MOL     -0.658722
      9 C4          8.7790   -2.5620    0.1790 c         1 MOL      0.649905
     10 O2          7.6280   -3.0620    0.2610 o         1 MOL     -0.584501
     11 C5          9.8790   -3.6190   -1.7490 c3        1 MOL     -0.055482
     12 C6          9.0310   -4.7180   -2.3760 c         1 MOL      0.857011
     13 O3          8.2270   -5.2950   -1.6270 o         1 MOL     -0.727929
     14 O4          9.2660   -5.1020   -3.5530 o         1 MOL     -0.727929
     15 H4          9.6870   -5.5040    0.1000 hn        1 MOL      0.107935
     16 H5         10.8260   -2.8320    0.1480 h1        1 MOL      0.215761
     17 H6         10.8600   -3.8130   -2.1660 hc        1 MOL      0.065399
     18 H7          9.4450   -2.7570   -2.2520 hc        1 MOL      0.065399
     19 N2          9.0380   -1.2680    0.3400 n         1 MOL     -0.321540
     20 C7          8.2320   -0.2250    0.9190 c3        1 MOL      0.185355
     21 C8          7.3040    0.4450   -0.1070 c         1 MOL      0.401533
     22 O5          7.4290    1.5980   -0.3960 o         1 MOL     -0.504411
     23 C9          9.0530    0.8950    1.6560 c3        1 MOL     -0.340958
     24 C10         8.2620    1.7720    2.6030 c3        1 MOL      0.115106
     25 C11         9.1060    2.5000    3.6470 c3        1 MOL     -0.001799
     26 C12         8.2520    3.2520    4.6030 c3        1 MOL      0.048559
     27 N3          8.1530    4.6630    4.1800 n4        1 MOL     -0.322982
     28 H8         10.0120   -1.0310    0.2160 hn        1 MOL      0.260998
     29 H9          7.6020   -0.6990    1.6780 h1        1 MOL      0.006696
     30 H10         9.5970    1.4290    0.8780 hc        1 MOL      0.106890
     31 H11         9.8490    0.3470    2.1570 hc        1 MOL      0.106890
     32 H12         7.5410    1.0960    3.0680 hc        1 MOL     -0.000863
     33 H13         7.6380    2.4570    2.0210 hc        1 MOL     -0.000863
     34 H14         9.7960    3.1530    3.0990 hc        1 MOL      0.038208
     35 H15         9.7440    1.7820    4.1670 hc        1 MOL      0.038208
     36 H16         8.7860    3.1460    5.5570 hx        1 MOL      0.069090
     37 H17         7.2570    2.8370    4.7590 hx        1 MOL      0.069090
     38 H18         7.2650    4.8600    3.7360 hn        1 MOL      0.277829
     39 H19         8.2060    5.3210    4.9500 hn        1 MOL      0.277829
     40 H20         8.8880    4.9750    3.5610 hn        1 MOL      0.277829
     41 N4          6.4650   -0.3080   -0.8080 n         1 MOL     -0.374441
     42 C13         5.5510    0.2050   -1.8180 c3        1 MOL      0.038198
     43 C14         4.0060    0.0480   -1.4780 c         1 MOL      0.397317
     44 O6          3.5680   -0.7490   -0.7310 o         1 MOL     -0.657752
     45 C15         5.8500   -0.5310   -3.0880 c3        1 MOL      0.497340
     46 C16         6.0640   -2.0410   -2.9330 c         1 MOL      0.062926
     47 O7          6.5190   -2.5930   -3.9340 o         1 MOL     -0.505970
     48 O8          5.7550   -2.6460   -1.8410 o         1 MOL     -0.505970
     49 H21         6.4510   -1.2890   -0.5580 hn        1 MOL      0.242241
     50 H22         5.7400    1.2690   -1.9580 h1        1 MOL      0.038094
     51 H23         6.6290   -0.0140   -3.6490 hc        1 MOL     -0.061704
     52 H24         5.0340   -0.2970   -3.7690 hc        1 MOL     -0.061704
     53 N5          3.0630    0.8410   -1.9890 n         1 MOL     -0.358929
     54 C17         3.2740    1.8950   -2.9400 c3        1 MOL     -0.041117
     55 C18         3.3810    3.2610   -2.2620 c         1 MOL      0.577993
     56 O9          3.6630    3.3870   -1.0910 o         1 MOL     -0.516011
     57 H25         2.2090    0.7980   -1.4540 hn        1 MOL      0.342630
     58 H26         2.3380    1.9330   -3.4980 h1        1 MOL      0.058304
     59 H27         4.0660    1.7230   -3.6650 h1        1 MOL      0.058304
     60 N6          3.3750    4.3500   -3.0220 n         1 MOL     -0.426533
     61 C19         3.3850    5.6840   -2.4550 c3        1 MOL      0.018943
     62 C20         2.1760    5.9460   -1.5670 c         1 MOL      0.541458
     63 O10         1.0300    5.8220   -2.0130 o         1 MOL     -0.511781
     64 C21         3.4210    6.7070   -3.6740 c3        1 MOL     -0.250961
     65 C22         3.3850    8.1650   -3.2040 c         1 MOL      0.676949
     66 O11         4.2670    8.5470   -2.4070 o         1 MOL     -0.646642
     67 O12         2.5210    9.0160   -3.6950 o         1 MOL     -0.646642
     68 H28         3.4410    4.2660   -4.0270 hn        1 MOL      0.280268
     69 H29         4.2660    5.8850   -1.8450 h1        1 MOL      0.036433
     70 H30         2.5950    6.5040   -4.3560 hc        1 MOL      0.076804
     71 H31         4.3430    6.4940   -4.2060 hc        1 MOL      0.076804
     72 N7          2.4150    6.1320   -0.2740 n         1 MOL     -0.398325
     73 C23         1.3670    6.2370    0.7640 c3        1 MOL      0.013291
     74 C24         1.0100    4.8860    1.4910 c         1 MOL      0.478364
     75 O13         0.1440    4.9700    2.3320 o         1 MOL     -0.543403
     76 H32         3.3570    6.3210    0.0450 hn        1 MOL      0.266608
     77 H33         0.4240    6.6160    0.3860 h1        1 MOL      0.075857
     78 H34         1.6340    6.9100    1.5860 h1        1 MOL      0.075857
     79 N8          1.6790    3.7740    1.0530 n         1 MOL     -0.350763
     80 C25         1.5940    2.3650    1.6800 c3        1 MOL      0.026273
     81 C26         0.5730    1.5920    0.7960 c         1 MOL      0.542225
     82 O14         0.4630    1.8630   -0.4450 o         1 MOL     -0.542230
     83 C27         3.0040    1.6600    1.6640 c3        1 MOL      0.257398
     84 C28         4.1160    2.4240    2.3090 c3        1 MOL     -0.239342
     85 O15         2.9710    0.4710    2.4600 oh        1 MOL     -0.581760
     86 H35         2.3810    3.9470    0.3550 hn        1 MOL      0.183989
     87 H36         1.2140    2.4200    2.6990 h1        1 MOL      0.080478
     88 H37         3.4410    1.5110    0.6770 h1        1 MOL      0.159873
     89 H38         3.9020    0.2490    2.5060 ho        1 MOL      0.324744
     90 H39         4.2920    3.4180    1.8910 hc        1 MOL      0.041479
     91 H40         3.9530    2.5350    3.3810 hc        1 MOL      0.041479
     92 H41         5.0250    1.8600    2.0610 hc        1 MOL      0.041479
     93 N9         -0.0320    0.5550    1.3550 n         1 MOL     -0.285024
     94 C29        -0.7040   -0.4910    0.6870 c3        1 MOL     -0.348705
     95 C30        -2.2050   -0.2900    0.4310 c         1 MOL      0.675760
     96 O16        -2.7270   -1.1790   -0.2380 o         1 MOL     -0.543261
     97 C31        -0.4500   -1.8890    1.4440 c3        1 MOL      0.238670
     98 C32        -1.0400   -1.8550    2.8700 c3        1 MOL     -0.030454
     99 C33         1.0260   -2.1320    1.5320 c3        1 MOL     -0.218870
    100 C34        -1.4350   -3.2560    3.3060 c3        1 MOL     -0.204218
    101 H42        -0.0690    0.5730    2.3690 hn        1 MOL      0.231317
    102 H43        -0.2720   -0.6180   -0.3010 h1        1 MOL      0.153452
    103 H44        -0.8570   -2.7280    0.8830 hc        1 MOL      0.010720
    104 H45        -1.8920   -1.1780    2.7880 hc        1 MOL      0.027418
    105 H46        -0.3610   -1.4240    3.6170 hc        1 MOL      0.027418
    106 H47         1.1670   -3.1700    1.8160 hc        1 MOL      0.053017
    107 H48         1.5260   -1.8460    0.5970 hc        1 MOL      0.053017
    108 H49         1.4740   -1.6830    2.4110 hc        1 MOL      0.053017
    109 H50        -0.5940   -3.8770    3.6130 hc        1 MOL      0.055963
    110 H51        -2.1900   -3.2500    4.0940 hc        1 MOL      0.055963
    111 H52        -1.8710   -3.8010    2.4660 hc        1 MOL      0.055963
    112 N10        -2.8050    0.8910    0.8200 n         1 MOL     -0.492250
    113 C35        -4.1150    1.1850    0.3340 c3        1 MOL      0.004023
    114 C36        -5.0990    1.3870    1.4660 c         1 MOL      0.655876
    115 O17        -4.7810    1.6770    2.6000 o         1 MOL     -0.551455
    116 C37        -4.1520    2.4810   -0.5260 c3        1 MOL      0.462358
    117 C38        -3.0250    2.6950   -1.4960 c3        1 MOL     -0.362464
    118 O18        -5.3170    2.4780   -1.2540 oh        1 MOL     -0.657217
    119 H53        -2.2570    1.5710    1.3270 hn        1 MOL      0.263519
    120 H54        -4.4830    0.3360   -0.2370 h1        1 MOL      0.045087
    121 H55        -4.1620    3.3550    0.1250 h1        1 MOL      0.013682
    122 H56        -5.2560    1.8640   -1.9980 ho        1 MOL      0.397474
    123 H57        -2.8970    1.7580   -2.0260 hc        1 MOL      0.099000
    124 H58        -3.2320    3.4900   -2.2150 hc        1 MOL      0.099000
    125 H59        -2.0660    2.9680   -1.0500 hc        1 MOL      0.099000
    126 N11        -6.4390    1.3660    1.2310 n         1 MOL     -0.621942
    127 C39        -7.4600    1.9460    2.1040 c3        1 MOL      0.088515
    128 C40        -8.7720    1.1670    2.1380 c         1 MOL      0.571178
    129 O19        -9.3220    1.1060    3.2700 o         1 MOL     -0.567431
    130 C41        -7.8100    3.4060    1.6740 c3        1 MOL      0.203208
    131 C42        -8.8900    4.1090    2.4720 c3        1 MOL     -0.475355
    132 O20        -8.1930    3.3050    0.3070 oh        1 MOL     -0.655495
    133 H60        -6.6870    1.3000    0.2540 hn        1 MOL      0.301706
    134 H61        -7.0870    2.0090    3.1340 h1        1 MOL      0.112960
    135 H62        -6.8840    4.0000    1.6660 h1        1 MOL      0.075909
    136 H63        -8.0460    4.2040    0.0030 ho        1 MOL      0.409054
    137 H64        -8.5670    4.2750    3.4980 hc        1 MOL      0.133726
    138 H65        -9.0250    5.0620    1.9730 hc        1 MOL      0.133726
    139 H66        -9.8560    3.5880    2.4880 hc        1 MOL      0.133726
    140 N12        -9.2160    0.5510    1.0520 n         1 MOL     -0.387276
    141 C43       -10.4260   -0.3030    1.0370 c3        1 MOL      0.035670
    142 C44       -10.4970   -1.2820   -0.1200 c         1 MOL      0.578230
    143 O21       -10.0860   -0.8960   -1.2130 o         1 MOL     -0.555719
    144 C45       -11.6810    0.5930    1.1870 c3        1 MOL     -0.247843
    145 C46       -12.1020    1.4330   -0.0710 c3        1 MOL      0.021260
    146 C47       -11.0830    2.3940   -0.5270 c3        1 MOL      0.071272
    147 C48       -11.6040    3.0440   -1.8220 c3        1 MOL     -0.136123
    148 N13       -12.4420    4.2080   -1.5670 n4        1 MOL     -0.298160
    149 H67        -8.5300    0.5500    0.3070 hn        1 MOL      0.255068
    150 H68       -10.3150   -0.9670    1.9080 h1        1 MOL      0.071736
    151 H69       -11.5180    1.2260    2.0620 hc        1 MOL      0.091833
    152 H70       -12.4650   -0.0820    1.4980 hc        1 MOL      0.091833
    153 H71       -13.0200    2.0020    0.0960 hc        1 MOL      0.016428
    154 H72       -12.2690    0.6690   -0.8280 hc        1 MOL      0.016428
    155 H73       -10.1980    1.7750   -0.6980 hc        1 MOL      0.033852
    156 H74       -10.9630    3.1440    0.2620 hc        1 MOL      0.033852
    157 H75       -12.0550    2.2900   -2.4710 hx        1 MOL      0.125511
    158 H76       -10.7390    3.4030   -2.3660 hx        1 MOL      0.125511
    159 H77       -12.9910    4.1340   -0.7240 hn        1 MOL      0.258214
    160 H78       -11.7850    4.9580   -1.4020 hn        1 MOL      0.258214
    161 H79       -13.0060    4.3630   -2.3910 hn        1 MOL      0.258214
    162 N14       -10.9010   -2.5110    0.1250 n         1 MOL     -0.416851
    163 C49       -10.9270   -3.6160   -0.8490 c3        1 MOL      0.036644
    164 C50        -9.5620   -4.0400   -1.5070 c         1 MOL      0.489772
    165 O22        -9.6280   -4.3690   -2.6370 o         1 MOL     -0.512887
    166 C51       -11.6940   -4.8380   -0.2510 c3        1 MOL      0.087206
    167 C52       -12.5930   -5.5390   -1.3030 c3        1 MOL     -0.376472
    168 C53       -13.4100   -6.6900   -0.7740 c         1 MOL      0.735178
    169 O23       -12.8260   -7.7430   -0.4810 o         1 MOL     -0.654179
    170 O24       -14.6900   -6.6820   -0.6430 o         1 MOL     -0.654179
    171 H80       -11.2140   -2.6950    1.0720 hn        1 MOL      0.249895
    172 H81       -11.6310   -3.3400   -1.6360 h1        1 MOL      0.074565
    173 H82       -12.3720   -4.6400    0.5750 hc        1 MOL      0.024680
    174 H83       -10.9670   -5.5660    0.0930 hc        1 MOL      0.024680
    175 H84       -11.8870   -5.9120   -2.0340 hc        1 MOL      0.096099
    176 H85       -13.2810   -4.8170   -1.7440 hc        1 MOL      0.096099
    177 N15        -8.3800   -4.2090   -0.8350 n         1 MOL     -0.439190
    178 C54        -8.2610   -4.4460    0.5730 c3        1 MOL      0.239272
    179 H86        -7.8840   -3.5470    1.0620 h1        1 MOL     -0.025200
    180 H87        -9.2390   -4.6990    0.9840 h1        1 MOL     -0.025200
    181 H88        -7.5690   -5.2690    0.7470 h1        1 MOL     -0.025200
    182 H89        -7.6150   -4.4930   -1.4310 hn        1 MOL      0.298119
    183 Ca1         5.6930   -4.6870   -0.4530 Ca        1 MOL      1.726740
    184 O25         4.9980   -2.4720    1.2110 oh        1 MOL     -0.869243
    185 H90         4.6090   -1.7090    0.7860 ho        1 MOL      0.431207
    186 H91         5.5360   -2.1070    1.9190 ho        1 MOL      0.431207
    187 O26         3.1310   -3.5140   -0.9670 oh        1 MOL     -0.869243
    188 H92         3.0290   -3.6660   -1.9080 ho        1 MOL      0.431207
    189 H93         3.2690   -2.5700   -0.8890 ho        1 MOL      0.431207
    190 O27         6.0560   -5.3530    2.1720 oh        1 MOL     -0.869243
    191 H94         5.3930   -6.0420    2.2150 ho        1 MOL      0.431207
    192 H95         6.5010   -5.3880    3.0090 ho        1 MOL      0.431207
    193 O28         4.7790   -5.7490   -2.6100 oh        1 MOL     -0.869243
    194 H96         5.2490   -5.4500   -3.3940 ho        1 MOL      0.431207
    195 H97         3.8750   -5.4770   -2.7460 ho        1 MOL      0.431207
@<TRIPOS>BOND
     1    1    2 1   
     2    1    4 1   
     3    1    5 1   
     4    1    6 1   
     5    2    3 2   
     6    2    7 1   
     7    7    8 1   
     8    7   15 1   
     9    8    9 1   
    10    8   11 1   
    11    8   16 1   
    12    9   10 2   
    13    9   19 1   
    14   11   12 1   
    15   11   17 1   
    16   11   18 1   
    17   12   13 1   
    18   12   14 1   
    19   19   20 1   
    20   19   28 1   
    21   20   21 1   
    22   20   23 1   
    23   20   29 1   
    24   21   22 2   
    25   21   41 1   
    26   23   24 1   
    27   23   30 1   
    28   23   31 1   
    29   24   25 1   
    30   24   32 1   
    31   24   33 1   
    32   25   26 1   
    33   25   34 1   
    34   25   35 1   
    35   26   27 1   
    36   26   36 1   
    37   26   37 1   
    38   27   38 1   
    39   27   39 1   
    40   27   40 1   
    41   41   42 1   
    42   41   49 1   
    43   42   43 1   
    44   42   45 1   
    45   42   50 1   
    46   43   44 2   
    47   43   53 1   
    48   45   46 1   
    49   45   51 1   
    50   45   52 1   
    51   46   47 1   
    52   46   48 1   
    53   53   54 1   
    54   53   57 1   
    55   54   55 1   
    56   54   58 1   
    57   54   59 1   
    58   55   56 2   
    59   55   60 1   
    60   60   61 1   
    61   60   68 1   
    62   61   62 1   
    63   61   64 1   
    64   61   69 1   
    65   62   63 2   
    66   62   72 1   
    67   64   65 1   
    68   64   70 1   
    69   64   71 1   
    70   65   66 1   
    71   65   67 1   
    72   72   73 1   
    73   72   76 1   
    74   73   74 1   
    75   73   77 1   
    76   73   78 1   
    77   74   75 2   
    78   74   79 1   
    79   79   80 1   
    80   79   86 1   
    81   80   81 1   
    82   80   83 1   
    83   80   87 1   
    84   81   82 2   
    85   81   93 1   
    86   83   84 1   
    87   83   85 1   
    88   83   88 1   
    89   84   90 1   
    90   84   91 1   
    91   84   92 1   
    92   85   89 1   
    93   93   94 1   
    94   93  101 1   
    95   94   95 1   
    96   94   97 1   
    97   94  102 1   
    98   95   96 2   
    99   95  112 1   
   100   97   98 1   
   101   97   99 1   
   102   97  103 1   
   103   98  100 1   
   104   98  104 1   
   105   98  105 1   
   106   99  106 1   
   107   99  107 1   
   108   99  108 1   
   109  100  109 1   
   110  100  110 1   
   111  100  111 1   
   112  112  113 1   
   113  112  119 1   
   114  113  114 1   
   115  113  116 1   
   116  113  120 1   
   117  114  115 2   
   118  114  126 1   
   119  116  117 1   
   120  116  118 1   
   121  116  121 1   
   122  117  123 1   
   123  117  124 1   
   124  117  125 1   
   125  118  122 1   
   126  126  127 1   
   127  126  133 1   
   128  127  128 1   
   129  127  130 1   
   130  127  134 1   
   131  128  129 2   
   132  128  140 1   
   133  130  131 1   
   134  130  132 1   
   135  130  135 1   
   136  131  137 1   
   137  131  138 1   
   138  131  139 1   
   139  132  136 1   
   140  140  141 1   
   141  140  149 1   
   142  141  142 1   
   143  141  144 1   
   144  141  150 1   
   145  142  143 2   
   146  142  162 1   
   147  144  145 1   
   148  144  151 1   
   149  144  152 1   
   150  145  146 1   
   151  145  153 1   
   152  145  154 1   
   153  146  147 1   
   154  146  155 1   
   155  146  156 1   
   156  147  148 1   
   157  147  157 1   
   158  147  158 1   
   159  148  159 1   
   160  148  160 1   
   161  148  161 1   
   162  162  163 1   
   163  162  171 1   
   164  163  164 1   
   165  163  166 1   
   166  163  172 1   
   167  164  165 2   
   168  164  177 1   
   169  166  167 1   
   170  166  173 1   
   171  166  174 1   
   172  167  168 1   
   173  167  175 1   
   174  167  176 1   
   175  168  169 1   
   176  168  170 1   
   177  177  178 1   
   178  177  182 1   
   179  178  179 1   
   180  178  180 1   
   181  178  181 1   
   182  184  185 1   
   183  184  186 1   
   184  187  188 1   
   185  187  189 1   
   186  190  191 1   
   187  190  192 1   
   188  193  194 1   
   189  193  195 1   
@<TRIPOS>SUBSTRUCTURE
     1 MOL         1 TEMP              0 ****  ****    0 ROOT
