@<TRIPOS>MOLECULE
MOL
  201   193     1     0     0
SMALL
resp


@<TRIPOS>ATOM
      1 C1          2.1840   -4.4950   -0.1610 c3        1 MOL     -0.168371
      2 C2          1.1460   -3.3520   -0.3850 c         1 MOL      0.703243
      3 O1          1.4850   -2.3480   -0.9890 o         1 MOL     -0.626982
      4 H1          2.0830   -5.2370   -0.9530 hc        1 MOL      0.040572
      5 H2          3.1910   -4.0800   -0.1790 hc        1 MOL      0.040572
      6 H3          2.0020   -4.9680    0.8040 hc        1 MOL      0.040572
      7 N1         -0.1380   -3.4970   -0.0550 n         1 MOL     -0.346499
      8 C3         -0.9110   -4.4950    0.7010 c3        1 MOL      0.112394
      9 C4         -1.8170   -5.3250   -0.2090 c         1 MOL      0.625666
     10 O2         -2.2960   -6.3730    0.2830 o         1 MOL     -0.573104
     11 C5         -1.6400   -3.9330    1.9330 c3        1 MOL     -0.335213
     12 C6         -0.6170   -3.2240    2.8730 c         1 MOL      0.740146
     13 O3         -0.3870   -2.0310    2.7450 o         1 MOL     -0.488850
     14 O4          0.0020   -3.8280    3.7700 o         1 MOL     -0.488850
     15 H4         -0.6880   -2.7160   -0.3820 hn        1 MOL      0.214558
     16 H5         -0.2110   -5.2600    1.0230 h1        1 MOL      0.049132
     17 H6         -2.0100   -4.8030    2.4700 hc        1 MOL      0.115334
     18 H7         -2.4250   -3.2210    1.6730 hc        1 MOL      0.115334
     19 N2         -2.1090   -4.9200   -1.4570 n         1 MOL     -0.520884
     20 C7         -2.9830   -5.5930   -2.4710 c3        1 MOL     -0.136343
     21 C8         -4.5010   -5.7060   -1.9930 c         1 MOL      0.546135
     22 O5         -5.1640   -6.6340   -2.4110 o         1 MOL     -0.563080
     23 C9         -2.7520   -4.9600   -3.8740 c3        1 MOL      0.146645
     24 C10        -3.2750   -3.5150   -3.9070 c3        1 MOL      0.281874
     25 C11        -1.2800   -5.0770   -4.3570 c3        1 MOL     -0.218101
     26 C12        -3.1140   -2.7240   -5.1450 c3        1 MOL     -0.224650
     27 H8         -1.7790   -4.0600   -1.8610 hn        1 MOL      0.209505
     28 H9         -2.6330   -6.6200   -2.5650 h1        1 MOL      0.131782
     29 H10        -3.3790   -5.5270   -4.5550 hc        1 MOL     -0.024309
     30 H11        -2.7310   -2.9110   -3.1830 hc        1 MOL     -0.057974
     31 H12        -4.3410   -3.5790   -3.6510 hc        1 MOL     -0.057974
     32 H13        -1.0330   -4.6820   -5.3450 hc        1 MOL      0.053403
     33 H14        -0.6030   -4.5470   -3.6900 hc        1 MOL      0.053403
     34 H15        -1.0740   -6.1460   -4.4640 hc        1 MOL      0.053403
     35 H16        -3.7360   -3.0970   -5.9500 hc        1 MOL      0.035300
     36 H17        -3.4770   -1.7090   -5.0130 hc        1 MOL      0.035300
     37 H18        -2.0600   -2.6350   -5.4130 hc        1 MOL      0.035300
     38 N3         -4.9610   -4.8530   -1.0100 n         1 MOL     -0.131517
     39 C13        -6.3650   -4.8880   -0.5020 c3        1 MOL     -0.000842
     40 C14        -6.4950   -4.1650    0.8100 c         1 MOL      0.351001
     41 O6         -5.5630   -3.3780    1.1310 o         1 MOL     -0.448058
     42 C15        -7.2820   -4.1180   -1.5290 c3        1 MOL     -0.176316
     43 C16        -8.7640   -4.2800   -1.2300 c         1 MOL      0.700674
     44 O7         -9.1650   -5.4650   -1.0040 o         1 MOL     -0.561908
     45 O8         -9.4910   -3.2500   -1.1840 o         1 MOL     -0.561908
     46 H19        -4.4000   -4.1710   -0.5140 hn        1 MOL      0.108292
     47 H20        -6.6500   -5.9290   -0.3630 h1        1 MOL      0.070103
     48 H21        -7.1140   -4.5260   -2.5240 hc        1 MOL      0.056623
     49 H22        -7.0530   -3.0500   -1.4450 hc        1 MOL      0.056623
     50 N4         -7.5940   -4.3590    1.5310 n         1 MOL     -0.172267
     51 C17        -8.0650   -3.5620    2.6650 c3        1 MOL     -0.397241
     52 C18        -8.2560   -2.0290    2.4760 c         1 MOL      0.670618
     53 O9         -8.2550   -1.3230    3.5080 o         1 MOL     -0.543446
     54 H23        -8.1510   -5.1250    1.1750 hn        1 MOL      0.231555
     55 H24        -7.3300   -3.5830    3.4740 h1        1 MOL      0.154615
     56 H25        -9.0600   -3.9030    2.9450 h1        1 MOL      0.154615
     57 N5         -8.2140   -1.5620    1.1910 n         1 MOL     -0.536676
     58 C19        -8.1600   -0.1210    0.8790 c3        1 MOL      0.297826
     59 C20        -7.0500    0.2620   -0.1260 c         1 MOL      0.320353
     60 O10        -6.5680   -0.5930   -0.9570 o         1 MOL     -0.540910
     61 C21        -9.5430    0.3860    0.4130 c3        1 MOL     -0.276710
     62 C22       -10.8220    0.1570    1.1990 c         1 MOL      0.708717
     63 O11       -11.8540   -0.3380    0.6610 o         1 MOL     -0.502024
     64 O12       -10.8880    0.5140    2.4130 o         1 MOL     -0.502024
     65 H26        -8.1280   -2.1790    0.4000 hn        1 MOL      0.419777
     66 H27        -7.9060    0.3690    1.8180 h1        1 MOL      0.039149
     67 H28        -9.6490   -0.0200   -0.5840 hc        1 MOL      0.073507
     68 H29        -9.5120    1.4690    0.2500 hc        1 MOL      0.073507
     69 N6         -6.4800    1.4350   -0.2260 n         1 MOL     -0.274253
     70 C23        -6.5150    2.6400    0.5990 c3        1 MOL     -0.147583
     71 C24        -5.8020    3.8590   -0.0280 c         1 MOL      0.662673
     72 O13        -5.6660    4.0390   -1.2510 o         1 MOL     -0.569467
     73 H30        -5.7920    1.5350   -0.9490 hn        1 MOL      0.251749
     74 H31        -6.1270    2.4270    1.5970 h1        1 MOL      0.086465
     75 H32        -7.5250    3.0410    0.6630 h1        1 MOL      0.086465
     76 N7         -5.4950    4.8360    0.7870 n         1 MOL     -0.703966
     77 C25        -5.0530    4.8150    2.1610 c3        1 MOL      0.399090
     78 C26        -3.6820    4.1090    2.3530 c         1 MOL      0.298383
     79 O14        -3.5000    3.3390    3.3070 o         1 MOL     -0.524321
     80 C27        -6.1530    4.5690    3.1290 c3        1 MOL      0.111360
     81 C28        -6.3350    5.7120    4.1460 c3        1 MOL     -0.172721
     82 C29        -5.0810    6.0950    4.9430 c         1 MOL      0.671333
     83 N8         -4.7490    5.4020    6.0400 n         1 MOL     -0.848114
     84 O15        -4.2140    6.8370    4.4610 o         1 MOL     -0.585495
     85 H33        -5.3670    5.7120    0.3100 hn        1 MOL      0.328994
     86 H34        -4.7400    5.8610    2.2200 h1        1 MOL     -0.003286
     87 H35        -6.0210    3.6240    3.6520 hc        1 MOL      0.001015
     88 H36        -7.1000    4.4220    2.6220 hc        1 MOL      0.001015
     89 H37        -7.0850    5.5120    4.9200 hc        1 MOL      0.016811
     90 H38        -6.5720    6.5790    3.5250 hc        1 MOL      0.016811
     91 H39        -5.2790    4.6270    6.4190 hn        1 MOL      0.382072
     92 H40        -3.8100    5.5440    6.3890 hn        1 MOL      0.382072
     93 N9         -2.8200    4.2080    1.3990 n         1 MOL     -0.151712
     94 C30        -1.7410    3.2420    1.1020 c3        1 MOL     -0.114555
     95 C31        -1.5850    2.9180   -0.3540 c         1 MOL      0.406475
     96 O16        -2.0600    3.7290   -1.1600 o         1 MOL     -0.522767
     97 C32        -0.3380    3.7310    1.6970 c3        1 MOL      0.245041
     98 C33        -0.4460    3.8990    3.2250 c3        1 MOL     -0.228558
     99 C34        -0.0480    5.0800    1.0160 c3        1 MOL     -0.228558
    100 H41        -3.0150    4.9670    0.7590 hn        1 MOL      0.221762
    101 H42        -2.0130    2.3320    1.6450 h1        1 MOL      0.110484
    102 H43         0.5030    3.0650    1.4550 hc        1 MOL      0.001669
    103 H44        -0.8340    2.9460    3.5840 hc        1 MOL      0.055800
    104 H45         0.4910    4.1050    3.7440 hc        1 MOL      0.055800
    105 H46        -1.0360    4.8010    3.3640 hc        1 MOL      0.055800
    106 H47         0.2210    4.8520   -0.0160 hc        1 MOL      0.055800
    107 H48        -0.9530    5.6710    1.1510 hc        1 MOL      0.055800
    108 H49         0.7900    5.5400    1.5470 hc        1 MOL      0.055800
    109 N10        -1.0360    1.7770   -0.7480 n         1 MOL     -0.223765
    110 C35        -1.1240    1.3630   -2.2030 c3        1 MOL     -0.085933
    111 C36         0.0820    1.7410   -3.0800 c         1 MOL      0.593646
    112 O17         0.0440    1.4220   -4.2540 o         1 MOL     -0.582310
    113 C37        -1.3300   -0.2110   -2.2660 c3        1 MOL     -0.222991
    114 C38        -2.5770   -0.8050   -1.5120 c         1 MOL      0.439606
    115 N11        -3.7310   -0.2140   -1.7150 n         1 MOL     -0.729116
    116 O18        -2.4010   -1.8020   -0.8100 o         1 MOL     -0.407146
    117 H50        -0.6790    1.1750   -0.0220 hn        1 MOL      0.268951
    118 H51        -2.0090    1.7870   -2.6610 h1        1 MOL      0.122217
    119 H52        -0.4310   -0.6530   -1.8540 hc        1 MOL      0.120252
    120 H53        -1.4080   -0.6140   -3.2690 hc        1 MOL      0.120252
    121 H54        -3.7190    0.5710   -2.3520 hn        1 MOL      0.382088
    122 H55        -4.5770   -0.5710   -1.2970 hn        1 MOL      0.382088
    123 N12         0.9590    2.5460   -2.5770 n         1 MOL     -0.226414
    124 C39         2.1450    3.0190   -3.2120 c3        1 MOL      0.057748
    125 C40         3.2460    3.1220   -2.1560 c         1 MOL      0.551447
    126 O19         2.9140    3.5940   -1.0030 o         1 MOL     -0.453563
    127 C41         1.9060    4.4130   -3.9200 c3        1 MOL     -0.238626
    128 C42         1.8370    5.7340   -3.1070 ca        1 MOL     -0.005840
    129 C43         2.9720    6.5400   -3.0400 ca        1 MOL     -0.075036
    130 C44         0.6420    6.1790   -2.5780 ca        1 MOL     -0.075036
    131 C45         2.8890    7.8590   -2.4650 ca        1 MOL     -0.361928
    132 C46         0.5330    7.3890   -1.9170 ca        1 MOL     -0.361928
    133 C47         1.7070    8.2000   -1.7970 ca        1 MOL      0.450011
    134 O20         1.6240    9.3470   -1.0620 oh        1 MOL     -0.508082
    135 H56         0.8630    2.8640   -1.6230 hn        1 MOL      0.024387
    136 H57         2.5620    2.3630   -3.9850 h1        1 MOL      0.054459
    137 H58         0.9320    4.2140   -4.3610 hc        1 MOL      0.088272
    138 H59         2.6370    4.5070   -4.7280 hc        1 MOL      0.088272
    139 H60         3.8920    6.2280   -3.5180 ha        1 MOL      0.126828
    140 H61        -0.1340    5.4210   -2.6300 ha        1 MOL      0.126828
    141 H62         3.6800    8.5910   -2.4990 ha        1 MOL      0.172301
    142 H63        -0.4110    7.7350   -1.5220 ha        1 MOL      0.172301
    143 H64         0.8130    9.2320   -0.5430 ho        1 MOL      0.331843
    144 N13         4.4650    2.7520   -2.4430 n         1 MOL     -0.463854
    145 C48         5.5470    2.7500   -1.4220 c3        1 MOL      0.102911
    146 C49         6.1300    1.3700   -1.4280 c         1 MOL      0.155029
    147 O21         7.1690    1.1080   -2.0960 o         1 MOL     -0.418798
    148 C50         6.4530    3.9390   -1.6840 c3        1 MOL     -0.328845
    149 C51         7.3440    4.1190   -0.4500 c3        1 MOL     -0.398172
    150 C52         8.3240    5.2940   -0.5510 c         1 MOL      0.698680
    151 O22         8.0230    6.4850   -0.8630 o         1 MOL     -0.725273
    152 O23         9.4850    5.0360   -0.2380 o         1 MOL     -0.725273
    153 H65         4.7280    2.4260   -3.3590 hn        1 MOL      0.319208
    154 H66         5.0560    2.8980   -0.4580 h1        1 MOL      0.030875
    155 H67         5.9200    4.8720   -1.8870 hc        1 MOL      0.144040
    156 H68         7.0860    3.7870   -2.5510 hc        1 MOL      0.144040
    157 H69         7.9130    3.2080   -0.2780 hc        1 MOL      0.191086
    158 H70         6.7290    4.3230    0.4210 hc        1 MOL      0.191086
    159 N14         5.4130    0.3880   -0.8290 n         1 MOL     -0.095637
    160 C53         5.9080   -1.0190   -0.8920 c3        1 MOL     -0.506378
    161 C54         5.3710   -1.7390   -2.1390 c         1 MOL      0.422125
    162 O24         5.8080   -2.8600   -2.4670 o         1 MOL     -0.562597
    163 C55         5.4290   -1.7530    0.4060 c3        1 MOL      1.291098
    164 C56         6.2410   -2.9960    0.7310 c3        1 MOL     -2.090119
    165 C57         7.6000   -2.6890    1.1990 c         1 MOL      1.461035
    166 O25         7.8850   -2.1500    2.2880 o         1 MOL     -0.739340
    167 O26         8.5550   -3.1540    0.5710 o         1 MOL     -0.739340
    168 H71         4.4900    0.5390   -0.4420 hn        1 MOL      0.203749
    169 H72         6.9960   -0.9360   -0.8230 h1        1 MOL      0.339321
    170 H73         4.3530   -1.9630    0.3060 hc        1 MOL     -0.282098
    171 H74         5.6040   -1.0380    1.2100 hc        1 MOL     -0.282098
    172 H75         6.2680   -3.6670   -0.1320 hc        1 MOL      0.456787
    173 H76         5.6230   -3.5470    1.4350 hc        1 MOL      0.456787
    174 N15         4.5190   -1.0770   -2.8650 n         1 MOL      0.049837
    175 C58         4.0770   -1.2800   -4.2590 c3        1 MOL     -0.219583
    176 H77         3.5290   -2.2190   -4.3330 h1        1 MOL      0.080092
    177 H78         3.4280   -0.4570   -4.5590 h1        1 MOL      0.080092
    178 H79         4.9470   -1.3140   -4.9160 h1        1 MOL      0.080092
    179 H80         4.1050   -0.2480   -2.4620 hn        1 MOL      0.079796
    180 Ca1        10.5270   -3.0470    2.4000 Ca        1 MOL      1.836692
    181 O27        10.1760   -1.5490    4.6980 oh        1 MOL     -0.939763
    182 H81         9.8360   -0.6540    4.7450 ho        1 MOL      0.328566
    183 H82         9.6480   -2.0360    5.3350 ho        1 MOL      0.328566
    184 O28         8.5470   -5.0660    3.3130 oh        1 MOL     -0.939763
    185 H83         8.3020   -5.9850    3.2910 ho        1 MOL      0.328566
    186 H84         7.8000   -4.6250    3.7240 ho        1 MOL      0.328566
    187 O29        11.9170   -2.9500   -0.0390 oh        1 MOL     -0.939763
    188 H85        12.5870   -2.5970   -0.6310 ho        1 MOL      0.328566
    189 H86        11.5630   -3.7090   -0.5020 ho        1 MOL      0.328566
    190 O30        10.2400   -0.4470    1.7010 oh        1 MOL     -0.939763
    191 H87        10.5020    0.2170    1.0740 ho        1 MOL      0.328566
    192 H88         9.8960    0.0510    2.4510 ho        1 MOL      0.328566
    193 O31        11.1770   -4.5440    4.5100 oh        1 MOL     -0.939763
    194 H89        10.9230   -4.1160    5.3260 ho        1 MOL      0.328566
    195 H90        10.7580   -5.4030    4.5500 ho        1 MOL      0.328566
    196 O32        10.6040   -5.5240    1.2260 oh        1 MOL     -0.939763
    197 H91         9.7020   -5.8560    1.2720 ho        1 MOL      0.328566
    198 H92        11.1410   -6.2750    1.4510 ho        1 MOL      0.328566
    199 O33        12.7310   -1.6300    2.8660 oh        1 MOL     -0.939763
    200 H93        13.5210   -2.0540    2.5400 ho        1 MOL      0.328566
    201 H94        12.8800   -0.6970    2.7240 ho        1 MOL      0.328566
@<TRIPOS>BOND
     1    1    2 1   
     2    1    4 1   
     3    1    5 1   
     4    1    6 1   
     5    2    3 2   
     6    2    7 1   
     7    7    8 1   
     8    7   15 1   
     9    8    9 1   
    10    8   11 1   
    11    8   16 1   
    12    9   10 2   
    13    9   19 1   
    14   11   12 1   
    15   11   17 1   
    16   11   18 1   
    17   12   13 1   
    18   12   14 1   
    19   19   20 1   
    20   19   27 1   
    21   20   21 1   
    22   20   23 1   
    23   20   28 1   
    24   21   22 2   
    25   21   38 1   
    26   23   24 1   
    27   23   25 1   
    28   23   29 1   
    29   24   26 1   
    30   24   30 1   
    31   24   31 1   
    32   25   32 1   
    33   25   33 1   
    34   25   34 1   
    35   26   35 1   
    36   26   36 1   
    37   26   37 1   
    38   38   39 1   
    39   38   46 1   
    40   39   40 1   
    41   39   42 1   
    42   39   47 1   
    43   40   41 2   
    44   40   50 1   
    45   42   43 1   
    46   42   48 1   
    47   42   49 1   
    48   43   44 1   
    49   43   45 1   
    50   50   51 1   
    51   50   54 1   
    52   51   52 1   
    53   51   55 1   
    54   51   56 1   
    55   52   53 2   
    56   52   57 1   
    57   57   58 1   
    58   57   65 1   
    59   58   59 1   
    60   58   61 1   
    61   58   66 1   
    62   59   60 2   
    63   59   69 1   
    64   61   62 1   
    65   61   67 1   
    66   61   68 1   
    67   62   63 1   
    68   62   64 1   
    69   69   70 1   
    70   69   73 1   
    71   70   71 1   
    72   70   74 1   
    73   70   75 1   
    74   71   72 2   
    75   71   76 1   
    76   76   77 1   
    77   76   85 1   
    78   77   78 1   
    79   77   80 1   
    80   77   86 1   
    81   78   79 2   
    82   78   93 1   
    83   80   81 1   
    84   80   87 1   
    85   80   88 1   
    86   81   82 1   
    87   81   89 1   
    88   81   90 1   
    89   82   83 1   
    90   82   84 2   
    91   83   91 1   
    92   83   92 1   
    93   93   94 1   
    94   93  100 1   
    95   94   95 1   
    96   94   97 1   
    97   94  101 1   
    98   95   96 2   
    99   95  109 1   
   100   97   98 1   
   101   97   99 1   
   102   97  102 1   
   103   98  103 1   
   104   98  104 1   
   105   98  105 1   
   106   99  106 1   
   107   99  107 1   
   108   99  108 1   
   109  109  110 1   
   110  109  117 1   
   111  110  111 1   
   112  110  113 1   
   113  110  118 1   
   114  111  112 2   
   115  111  123 1   
   116  113  114 1   
   117  113  119 1   
   118  113  120 1   
   119  114  115 1   
   120  114  116 2   
   121  115  121 1   
   122  115  122 1   
   123  123  124 1   
   124  123  135 1   
   125  124  125 1   
   126  124  127 1   
   127  124  136 1   
   128  125  126 2   
   129  125  144 1   
   130  127  128 1   
   131  127  137 1   
   132  127  138 1   
   133  128  129 ar  
   134  128  130 ar  
   135  129  131 ar  
   136  129  139 1   
   137  130  132 ar  
   138  130  140 1   
   139  131  133 ar  
   140  131  141 1   
   141  132  133 ar  
   142  132  142 1   
   143  133  134 1   
   144  134  143 1   
   145  144  145 1   
   146  144  153 1   
   147  145  146 1   
   148  145  148 1   
   149  145  154 1   
   150  146  147 2   
   151  146  159 1   
   152  148  149 1   
   153  148  155 1   
   154  148  156 1   
   155  149  150 1   
   156  149  157 1   
   157  149  158 1   
   158  150  151 1   
   159  150  152 1   
   160  159  160 1   
   161  159  168 1   
   162  160  161 1   
   163  160  163 1   
   164  160  169 1   
   165  161  162 2   
   166  161  174 1   
   167  163  164 1   
   168  163  170 1   
   169  163  171 1   
   170  164  165 1   
   171  164  172 1   
   172  164  173 1   
   173  165  166 1   
   174  165  167 1   
   175  174  175 1   
   176  174  179 1   
   177  175  176 1   
   178  175  177 1   
   179  175  178 1   
   180  181  182 1   
   181  181  183 1   
   182  184  185 1   
   183  184  186 1   
   184  187  188 1   
   185  187  189 1   
   186  190  191 1   
   187  190  192 1   
   188  193  194 1   
   189  193  195 1   
   190  196  197 1   
   191  196  198 1   
   192  199  200 1   
   193  199  201 1   
@<TRIPOS>SUBSTRUCTURE
     1 MOL         1 TEMP              0 ****  ****    0 ROOT
