@<TRIPOS>MOLECULE
MOL
  192   187     1     0     0
SMALL
resp


@<TRIPOS>ATOM
      1 C1         -8.9030    0.7000   -2.6210 c3        1 MOL     -0.361296
      2 C2         -8.1110    1.1340   -1.2960 c         1 MOL      0.588470
      3 O1         -7.3490    2.2120   -1.2850 o         1 MOL     -0.562696
      4 H1         -8.1890    0.4210   -3.3960 hc        1 MOL      0.090886
      5 H2         -9.5470   -0.1510   -2.3980 hc        1 MOL      0.090886
      6 H3         -9.5110    1.5340   -2.9710 hc        1 MOL      0.090886
      7 N1         -8.1570    0.2090   -0.3630 n         1 MOL     -0.418802
      8 C3         -7.4160    0.1420    0.8340 c3        1 MOL     -0.066223
      9 C4         -6.9570   -1.3110    1.2080 c         1 MOL      0.463605
     10 O2         -6.8030   -1.5780    2.4020 o         1 MOL     -0.427455
     11 C5         -8.1100    0.9050    1.9840 c3        1 MOL     -0.096623
     12 C6         -9.6130    0.5720    2.3540 c         1 MOL      0.625573
     13 O3         -9.9760   -0.5890    2.6470 o         1 MOL     -0.616018
     14 O4        -10.4410    1.5180    2.2020 o         1 MOL     -0.616018
     15 H4         -8.9530   -0.4160   -0.4480 hn        1 MOL      0.309261
     16 H5         -6.4970    0.7390    0.7620 h1        1 MOL      0.121358
     17 H6         -8.0080    1.9800    1.8290 hc        1 MOL      0.046571
     18 H7         -7.4830    0.7950    2.8600 hc        1 MOL      0.046571
     19 N2         -6.8980   -2.0780    0.1650 n         1 MOL     -0.419658
     20 C7         -6.4910   -3.5050    0.3330 c3        1 MOL      0.141137
     21 C8         -5.0370   -3.6690    0.9300 c         1 MOL      0.421033
     22 O5         -4.8400   -4.4460    1.8420 o         1 MOL     -0.522400
     23 C9         -6.6190   -4.1420   -1.0900 c3        1 MOL     -0.039319
     24 C10        -8.0690   -4.4780   -1.5370 c3        1 MOL      0.246269
     25 C11        -8.0740   -5.3610   -2.7970 c3        1 MOL     -0.070274
     26 C12        -9.4550   -5.3750   -3.3970 c3        1 MOL      0.164533
     27 N3         -9.5360   -6.2260   -4.6030 n4        1 MOL     -0.354598
     28 H8         -7.1100   -1.6420   -0.7260 hn        1 MOL      0.241591
     29 H9         -7.1180   -4.1250    0.9810 h1        1 MOL      0.079687
     30 H10        -5.9710   -5.0140   -1.1320 hc        1 MOL     -0.010894
     31 H11        -6.3260   -3.3170   -1.7320 hc        1 MOL     -0.010894
     32 H12        -8.5100   -3.4990   -1.7480 hc        1 MOL     -0.058223
     33 H13        -8.6170   -4.9230   -0.7100 hc        1 MOL     -0.058223
     34 H14        -7.8890   -6.3750   -2.4480 hc        1 MOL      0.027212
     35 H15        -7.2860   -5.0370   -3.4780 hc        1 MOL      0.027212
     36 H16        -9.6000   -4.3350   -3.6460 hx        1 MOL      0.029575
     37 H17       -10.2040   -5.6300   -2.6470 hx        1 MOL      0.029575
     38 H18        -9.0440   -5.8200   -5.3800 hn        1 MOL      0.267637
     39 H19        -9.2390   -7.1550   -4.3520 hn        1 MOL      0.267637
     40 H20       -10.5110   -6.4170   -4.7730 hn        1 MOL      0.267637
     41 N4         -4.0020   -2.8990    0.6770 n         1 MOL     -0.385458
     42 C13        -3.8540   -1.7510   -0.1130 c3        1 MOL      0.137692
     43 C14        -3.9050   -0.4360    0.6070 c         1 MOL      0.258604
     44 O6         -3.7450   -0.3320    1.8600 o         1 MOL     -0.409730
     45 C15        -2.6670   -1.8030   -1.0910 c3        1 MOL     -0.258257
     46 C16        -1.3550   -2.1730   -0.3380 c         1 MOL      0.616052
     47 O7         -0.8400   -1.2550    0.3170 o         1 MOL     -0.650541
     48 O8         -0.8270   -3.2910   -0.5680 o         1 MOL     -0.650541
     49 H21        -3.1930   -3.1390    1.2260 hn        1 MOL      0.359590
     50 H22        -4.7190   -1.7070   -0.7840 h1        1 MOL      0.032818
     51 H23        -2.7010   -0.8830   -1.6730 hc        1 MOL      0.057350
     52 H24        -2.8980   -2.5830   -1.8180 hc        1 MOL      0.057350
     53 N5         -4.1360    0.6240   -0.1420 n         1 MOL     -0.223916
     54 C17        -4.1000    2.0120    0.2900 c3        1 MOL     -0.298261
     55 C18        -2.7510    2.5570    0.7120 c         1 MOL      0.802666
     56 O9         -1.7380    1.9630    0.6750 o         1 MOL     -0.620606
     57 H25        -4.4570    0.4360   -1.0800 hn        1 MOL      0.240335
     58 H26        -4.8090    2.0750    1.1070 h1        1 MOL      0.135655
     59 H27        -4.4650    2.6150   -0.5450 h1        1 MOL      0.135655
     60 N6         -2.8440    3.7790    1.2510 n         1 MOL     -0.700322
     61 C19        -1.7300    4.6810    1.5970 c3        1 MOL      0.486323
     62 C20        -2.0450    6.1370    1.1520 c         1 MOL      0.351881
     63 O10        -3.2480    6.4000    1.0080 o         1 MOL     -0.507410
     64 C21        -1.4410    4.6500    3.0940 c3        1 MOL     -0.328465
     65 C22        -0.9720    3.3050    3.5300 c         1 MOL      0.662125
     66 O11        -1.3870    2.8900    4.6210 o         1 MOL     -0.647591
     67 O12        -0.0610    2.6990    2.9180 o         1 MOL     -0.647591
     68 H28        -3.7150    4.2370    1.4740 hn        1 MOL      0.340330
     69 H29        -0.8290    4.3230    1.0920 h1        1 MOL     -0.010976
     70 H30        -2.3220    4.9680    3.6450 hc        1 MOL      0.086445
     71 H31        -0.6510    5.3260    3.4230 hc        1 MOL      0.086445
     72 N7         -1.1410    7.2200    1.0610 n         1 MOL     -0.437144
     73 C23         0.3370    7.1560    1.2120 c3        1 MOL     -0.096382
     74 C24         1.0490    6.5120    0.0960 c         1 MOL      0.719476
     75 O13         0.5770    6.5230   -0.9900 o         1 MOL     -0.518430
     76 H32        -1.6050    8.0180    0.6530 hn        1 MOL      0.327557
     77 H33         0.5720    6.6590    2.1500 h1        1 MOL      0.064698
     78 H34         0.7700    8.1510    1.0900 h1        1 MOL      0.064698
     79 N8          2.1450    5.8410    0.4360 n         1 MOL     -0.705434
     80 C25         2.8580    4.8570   -0.3890 c3        1 MOL      0.149237
     81 C26         1.8870    3.7260   -0.7830 c         1 MOL      0.866937
     82 O14         1.0370    3.2480    0.0090 o         1 MOL     -0.758580
     83 C27         4.1140    4.3460    0.1790 c3        1 MOL      0.284961
     84 C28         5.3800    5.2760   -0.0660 c3        1 MOL     -0.274528
     85 O15         4.4340    3.1610   -0.5550 oh        1 MOL     -0.659796
     86 H35         2.5150    5.9730    1.3660 hn        1 MOL      0.347116
     87 H36         3.0730    5.3450   -1.3410 h1        1 MOL      0.022181
     88 H37         4.0490    4.0170    1.2130 h1        1 MOL      0.005837
     89 H38         5.3190    2.9310   -0.2360 ho        1 MOL      0.418235
     90 H39         6.3150    4.7640    0.1650 hc        1 MOL      0.078783
     91 H40         5.5330    5.5370   -1.1110 hc        1 MOL      0.078783
     92 H41         5.3260    6.1800    0.5260 hc        1 MOL      0.078783
     93 N9          1.8770    3.4560   -2.1230 n         1 MOL     -0.719730
     94 C29         1.1240    2.3870   -2.7360 c3        1 MOL      0.001438
     95 C30         1.5330    1.0140   -2.2100 c         1 MOL      0.682398
     96 O16         1.5070    0.6950   -1.0040 o         1 MOL     -0.627224
     97 C31        -0.3940    2.6770   -2.7750 c3        1 MOL      0.304707
     98 C32        -0.7530    3.9890   -3.4120 c3        1 MOL      0.127887
     99 C33        -1.1040    1.5150   -3.4700 c3        1 MOL     -0.382171
    100 C34        -2.2640    4.5330   -3.3710 c3        1 MOL     -0.308176
    101 H42         2.4650    3.9940   -2.7580 hn        1 MOL      0.343277
    102 H43         1.4920    2.3530   -3.7610 h1        1 MOL      0.037145
    103 H44        -0.7490    2.5400   -1.7560 hc        1 MOL      0.030947
    104 H45        -0.4370    3.9190   -4.4480 hc        1 MOL     -0.039799
    105 H46        -0.1870    4.7860   -2.9190 hc        1 MOL     -0.039799
    106 H47        -0.9290    1.6980   -4.5290 hc        1 MOL      0.067433
    107 H48        -0.8050    0.5480   -3.0860 hc        1 MOL      0.067433
    108 H49        -2.1480    1.7440   -3.2720 hc        1 MOL      0.067433
    109 H50        -2.6460    4.3320   -2.3670 hc        1 MOL      0.086937
    110 H51        -2.1490    5.5790   -3.6250 hc        1 MOL      0.086937
    111 H52        -2.9460    3.9780   -4.0160 hc        1 MOL      0.086937
    112 N10         1.8320    0.1160   -3.1270 n         1 MOL     -0.335399
    113 C35         2.1680   -1.2970   -2.8120 c3        1 MOL     -0.168206
    114 C36         3.6340   -1.7030   -3.0380 c         1 MOL      0.700405
    115 O17         3.9580   -2.8540   -2.8820 o         1 MOL     -0.598700
    116 C37         1.3520   -2.2880   -3.5620 c3        1 MOL      0.470573
    117 C38         1.4350   -2.1880   -5.0910 c3        1 MOL     -0.347376
    118 O18         0.0790   -2.0520   -3.1890 oh        1 MOL     -0.608926
    119 H53         1.6990    0.3660   -4.1010 hn        1 MOL      0.215797
    120 H54         1.9770   -1.5050   -1.7660 h1        1 MOL      0.133996
    121 H55         1.5400   -3.3290   -3.3140 h1        1 MOL      0.008819
    122 H56        -0.1120   -2.3260   -2.2860 ho        1 MOL      0.370958
    123 H57         1.2320   -1.1970   -5.4860 hc        1 MOL      0.080284
    124 H58         2.4690   -2.3780   -5.3850 hc        1 MOL      0.080284
    125 H59         0.7130   -2.8680   -5.5390 hc        1 MOL      0.080284
    126 N11         4.4550   -0.7980   -3.4420 n         1 MOL     -0.485013
    127 C39         5.9390   -1.0710   -3.5130 c3        1 MOL     -0.006965
    128 C40         6.4810   -1.0180   -2.0740 c         1 MOL      0.605706
    129 O19         6.8540    0.0410   -1.5030 o         1 MOL     -0.527281
    130 C41         6.6960    0.0430   -4.3430 c3        1 MOL      0.465149
    131 C42         8.1760   -0.2250   -4.6810 c3        1 MOL     -0.360731
    132 O20         6.0620    0.1960   -5.6100 oh        1 MOL     -0.613073
    133 H60         4.0930    0.1460   -3.4300 hn        1 MOL      0.235174
    134 H61         6.1170   -2.0280   -4.0160 h1        1 MOL      0.091712
    135 H62         6.6710    0.9820   -3.7860 h1        1 MOL     -0.045200
    136 H63         5.3980    0.8810   -5.5180 ho        1 MOL      0.369683
    137 H64         8.4350    0.3610   -5.5530 hc        1 MOL      0.095032
    138 H65         8.8570   -0.0870   -3.8470 hc        1 MOL      0.095032
    139 H66         8.3310   -1.2700   -4.9620 hc        1 MOL      0.095032
    140 N12         6.4830   -2.2440   -1.4450 n         1 MOL     -0.789821
    141 C43         6.4810   -2.6130   -0.0280 c3        1 MOL      0.406313
    142 C44         5.1410   -2.2490    0.6770 c         1 MOL      0.587216
    143 O21         4.4730   -1.2660    0.2940 o         1 MOL     -0.516997
    144 C45         7.6580   -1.9730    0.7750 c3        1 MOL     -0.505164
    145 C46         9.0000   -2.4800    0.1950 c3        1 MOL      0.148392
    146 C47        10.1210   -1.6720    0.9020 c3        1 MOL      0.018938
    147 C48        11.5200   -2.1910    0.4370 c3        1 MOL     -0.028914
    148 N13        12.5870   -1.6070    1.3190 n4        1 MOL     -0.141536
    149 H67         5.9900   -2.8900   -2.0570 hn        1 MOL      0.351069
    150 H68         6.6670   -3.6760    0.0560 h1        1 MOL      0.018419
    151 H69         7.5870   -2.2800    1.8180 hc        1 MOL      0.145804
    152 H70         7.6000   -0.9020    0.6070 hc        1 MOL      0.145804
    153 H71         9.0640   -2.3260   -0.8880 hc        1 MOL      0.006494
    154 H72         9.2000   -3.5320    0.3740 hc        1 MOL      0.006494
    155 H73        10.0140   -1.7920    1.9860 hc        1 MOL      0.030777
    156 H74        10.0340   -0.6090    0.6660 hc        1 MOL      0.030777
    157 H75        11.6240   -1.9670   -0.6280 hx        1 MOL      0.074323
    158 H76        11.6010   -3.2790    0.5700 hx        1 MOL      0.074323
    159 H77        12.5720   -1.8020    2.3110 hn        1 MOL      0.204478
    160 H78        13.4440   -1.9790    0.9380 hn        1 MOL      0.204478
    161 H79        12.6190   -0.6060    1.1810 hn        1 MOL      0.204478
    162 N14         4.7090   -3.0810    1.6470 n         1 MOL     -0.699480
    163 C49         3.5540   -2.7200    2.5260 c3        1 MOL      0.351616
    164 C50         2.1830   -2.5650    1.8340 c         1 MOL      0.065607
    165 O22         1.5430   -1.5710    2.0610 o         1 MOL     -0.372295
    166 C51         3.4380   -3.6610    3.7500 c3        1 MOL      0.235753
    167 C52         4.3930   -3.3620    4.9290 c3        1 MOL     -0.363391
    168 C53         4.3010   -4.2600    6.1990 c         1 MOL      0.729977
    169 O23         4.0730   -5.4700    6.0610 o         1 MOL     -0.640956
    170 O24         4.5210   -3.7510    7.3670 o         1 MOL     -0.640956
    171 H80         5.2770   -3.8630    1.9440 hn        1 MOL      0.315937
    172 H81         3.7350   -1.7310    2.9530 h1        1 MOL     -0.015834
    173 H82         3.4790   -4.7410    3.5980 hc        1 MOL     -0.003106
    174 H83         2.4470   -3.6700    4.1990 hc        1 MOL     -0.003106
    175 H84         4.2390   -2.2880    5.0560 hc        1 MOL      0.034987
    176 H85         5.4110   -3.4800    4.5700 hc        1 MOL      0.034987
    177 N15         1.7790   -3.5630    1.0510 n         1 MOL     -0.166101
    178 C54         2.2790   -4.8950    0.6950 c3        1 MOL     -0.118571
    179 H86         3.0470   -4.8010   -0.0730 h1        1 MOL      0.060936
    180 H87         2.7060   -5.3710    1.5780 h1        1 MOL      0.060936
    181 H88         1.4570   -5.5020    0.3160 h1        1 MOL      0.060936
    182 H89         0.9450   -3.3570    0.5180 hn        1 MOL      0.273837
    183 Ca1         0.4860    0.7810    1.3410 Ca        1 MOL      1.684079
    184 O25         1.9600    0.5970    3.7440 oh        1 MOL     -0.766540
    185 H90         2.3470   -0.0220    4.3590 ho        1 MOL      0.371132
    186 H91         2.6000    1.3070    3.6920 ho        1 MOL      0.371132
    187 O26        -1.1490    0.0860    3.3350 oh        1 MOL     -0.766540
    188 H92        -1.9310   -0.4200    3.1080 ho        1 MOL      0.371132
    189 H93        -1.4760    0.9700    3.4880 ho        1 MOL      0.371132
    190 O27         3.1290    1.3420    1.2690 oh        1 MOL     -0.766540
    191 H94         3.7170    0.6760    1.6410 ho        1 MOL      0.371132
    192 H95         3.6330    1.7210    0.5450 ho        1 MOL      0.371132
@<TRIPOS>BOND
     1    1    2 1   
     2    1    4 1   
     3    1    5 1   
     4    1    6 1   
     5    2    3 2   
     6    2    7 1   
     7    7    8 1   
     8    7   15 1   
     9    8    9 1   
    10    8   11 1   
    11    8   16 1   
    12    9   10 2   
    13    9   19 1   
    14   11   12 1   
    15   11   17 1   
    16   11   18 1   
    17   12   13 1   
    18   12   14 1   
    19   19   20 1   
    20   19   28 1   
    21   20   21 1   
    22   20   23 1   
    23   20   29 1   
    24   21   22 2   
    25   21   41 1   
    26   23   24 1   
    27   23   30 1   
    28   23   31 1   
    29   24   25 1   
    30   24   32 1   
    31   24   33 1   
    32   25   26 1   
    33   25   34 1   
    34   25   35 1   
    35   26   27 1   
    36   26   36 1   
    37   26   37 1   
    38   27   38 1   
    39   27   39 1   
    40   27   40 1   
    41   41   42 1   
    42   41   49 1   
    43   42   43 1   
    44   42   45 1   
    45   42   50 1   
    46   43   44 2   
    47   43   53 1   
    48   45   46 1   
    49   45   51 1   
    50   45   52 1   
    51   46   47 1   
    52   46   48 1   
    53   53   54 1   
    54   53   57 1   
    55   54   55 1   
    56   54   58 1   
    57   54   59 1   
    58   55   56 2   
    59   55   60 1   
    60   60   61 1   
    61   60   68 1   
    62   61   62 1   
    63   61   64 1   
    64   61   69 1   
    65   62   63 2   
    66   62   72 1   
    67   64   65 1   
    68   64   70 1   
    69   64   71 1   
    70   65   66 1   
    71   65   67 1   
    72   72   73 1   
    73   72   76 1   
    74   73   74 1   
    75   73   77 1   
    76   73   78 1   
    77   74   75 2   
    78   74   79 1   
    79   79   80 1   
    80   79   86 1   
    81   80   81 1   
    82   80   83 1   
    83   80   87 1   
    84   81   82 2   
    85   81   93 1   
    86   83   84 1   
    87   83   85 1   
    88   83   88 1   
    89   84   90 1   
    90   84   91 1   
    91   84   92 1   
    92   85   89 1   
    93   93   94 1   
    94   93  101 1   
    95   94   95 1   
    96   94   97 1   
    97   94  102 1   
    98   95   96 2   
    99   95  112 1   
   100   97   98 1   
   101   97   99 1   
   102   97  103 1   
   103   98  100 1   
   104   98  104 1   
   105   98  105 1   
   106   99  106 1   
   107   99  107 1   
   108   99  108 1   
   109  100  109 1   
   110  100  110 1   
   111  100  111 1   
   112  112  113 1   
   113  112  119 1   
   114  113  114 1   
   115  113  116 1   
   116  113  120 1   
   117  114  115 2   
   118  114  126 1   
   119  116  117 1   
   120  116  118 1   
   121  116  121 1   
   122  117  123 1   
   123  117  124 1   
   124  117  125 1   
   125  118  122 1   
   126  126  127 1   
   127  126  133 1   
   128  127  128 1   
   129  127  130 1   
   130  127  134 1   
   131  128  129 2   
   132  128  140 1   
   133  130  131 1   
   134  130  132 1   
   135  130  135 1   
   136  131  137 1   
   137  131  138 1   
   138  131  139 1   
   139  132  136 1   
   140  140  141 1   
   141  140  149 1   
   142  141  142 1   
   143  141  144 1   
   144  141  150 1   
   145  142  143 2   
   146  142  162 1   
   147  144  145 1   
   148  144  151 1   
   149  144  152 1   
   150  145  146 1   
   151  145  153 1   
   152  145  154 1   
   153  146  147 1   
   154  146  155 1   
   155  146  156 1   
   156  147  148 1   
   157  147  157 1   
   158  147  158 1   
   159  148  159 1   
   160  148  160 1   
   161  148  161 1   
   162  162  163 1   
   163  162  171 1   
   164  163  164 1   
   165  163  166 1   
   166  163  172 1   
   167  164  165 2   
   168  164  177 1   
   169  166  167 1   
   170  166  173 1   
   171  166  174 1   
   172  167  168 1   
   173  167  175 1   
   174  167  176 1   
   175  168  169 1   
   176  168  170 1   
   177  177  178 1   
   178  177  182 1   
   179  178  179 1   
   180  178  180 1   
   181  178  181 1   
   182  184  185 1   
   183  184  186 1   
   184  187  188 1   
   185  187  189 1   
   186  190  191 1   
   187  190  192 1   
@<TRIPOS>SUBSTRUCTURE
     1 MOL         1 TEMP              0 ****  ****    0 ROOT
