@<TRIPOS>MOLECULE
MOL
  195   189     1     0     0
SMALL
resp


@<TRIPOS>ATOM
      1 C1          2.8510   -5.7960    2.1520 c3        1 MOL     -0.526580
      2 C2          3.4980   -4.8110    1.2410 c         1 MOL      0.746973
      3 O1          3.8370   -3.6970    1.6080 o         1 MOL     -0.547025
      4 H1          3.6130   -6.4420    2.5870 hc        1 MOL      0.115700
      5 H2          2.3270   -5.2660    2.9470 hc        1 MOL      0.115700
      6 H3          2.1400   -6.4010    1.5880 hc        1 MOL      0.115700
      7 N1          3.5840   -5.2500   -0.0340 n         1 MOL     -0.785087
      8 C3          4.3090   -4.6460   -1.1480 c3        1 MOL     -0.086900
      9 C4          5.8110   -4.7000   -1.0800 c         1 MOL      0.628536
     10 O2          6.3950   -4.8330   -2.0970 o         1 MOL     -0.547107
     11 C5          3.7650   -3.2340   -1.4540 c3        1 MOL     -0.451859
     12 C6          2.2250   -3.1760   -1.6290 c         1 MOL      0.919227
     13 O3          1.6910   -3.9510   -2.3910 o         1 MOL     -0.723491
     14 O4          1.6260   -2.1470   -1.4240 o         1 MOL     -0.723491
     15 H4          3.1210   -6.1120   -0.2630 hn        1 MOL      0.396514
     16 H5          4.0630   -5.3190   -1.9740 h1        1 MOL      0.086113
     17 H6          4.2520   -2.9270   -2.3740 hc        1 MOL      0.160268
     18 H7          3.9960   -2.6330   -0.5710 hc        1 MOL      0.160268
     19 N2          6.3810   -4.4050    0.1150 n         1 MOL      0.002904
     20 C7          7.8420   -4.3710    0.4940 c3        1 MOL     -0.339705
     21 C8          8.6550   -3.8080   -0.6950 c         1 MOL      0.650036
     22 O5          9.4030   -4.5190   -1.3970 o         1 MOL     -0.604038
     23 C9          8.4370   -5.6510    1.0730 c3        1 MOL      0.165248
     24 C10         7.4870   -6.5050    1.9520 c3        1 MOL     -0.101438
     25 C11         9.8030   -5.4200    1.6870 c3        1 MOL     -0.151009
     26 C12         7.0030   -7.7830    1.1700 c3        1 MOL     -0.121431
     27 H8          5.8110   -4.2180    0.9240 hn        1 MOL      0.217773
     28 H9          7.8880   -3.5820    1.2430 h1        1 MOL      0.158357
     29 H10         8.6930   -6.2760    0.2080 hc        1 MOL      0.016128
     30 H11         6.5840   -5.9450    2.1740 hc        1 MOL      0.020941
     31 H12         7.9710   -6.8860    2.8550 hc        1 MOL      0.020941
     32 H13         9.6310   -4.8950    2.6270 hc        1 MOL      0.026379
     33 H14        10.2650   -6.3880    1.8900 hc        1 MOL      0.026379
     34 H15        10.4040   -4.6940    1.1290 hc        1 MOL      0.026379
     35 H16         6.1730   -8.2600    1.6920 hc        1 MOL      0.027335
     36 H17         6.6000   -7.4820    0.2030 hc        1 MOL      0.027335
     37 H18         7.8730   -8.4440    1.1920 hc        1 MOL      0.027335
     38 N3          8.4490   -2.5900   -1.1380 n         1 MOL     -0.475591
     39 C13         7.5130   -1.5450   -0.7950 c3        1 MOL      0.262125
     40 C14         7.0820   -0.6580   -1.9560 c         1 MOL      0.558728
     41 O6          7.8700   -0.5400   -2.8950 o         1 MOL     -0.554075
     42 C15         8.2200   -0.7630    0.3150 c3        1 MOL     -0.433670
     43 C16         7.2370    0.1330    1.1480 c         1 MOL      0.737796
     44 O7          7.7120    1.0340    1.8430 o         1 MOL     -0.711170
     45 O8          6.0000    0.0680    1.0420 o         1 MOL     -0.711170
     46 H19         9.1150   -2.2650   -1.8270 hn        1 MOL      0.263822
     47 H20         6.5860   -1.9780   -0.4190 h1        1 MOL     -0.135542
     48 H21         9.0160   -0.1520   -0.0970 hc        1 MOL      0.094773
     49 H22         8.6000   -1.4780    1.0490 hc        1 MOL      0.094773
     50 N4          5.8580   -0.0880   -1.9910 n         1 MOL     -0.316793
     51 C17         5.3120    0.8010   -3.0000 c3        1 MOL     -0.310650
     52 C18         5.1870    2.3070   -2.7580 c         1 MOL      0.691941
     53 O9          6.1510    2.9050   -2.2510 o         1 MOL     -0.550470
     54 H23         5.3190   -0.1040   -1.1390 hn        1 MOL      0.311731
     55 H24         4.4130    0.2820   -3.3400 h1        1 MOL      0.121642
     56 H25         6.0890    0.7420   -3.7560 h1        1 MOL      0.121642
     57 N5          4.0620    2.9340   -3.1460 n         1 MOL     -0.533598
     58 C19         3.8040    4.4160   -3.0320 c3        1 MOL     -0.016821
     59 C20         4.2420    5.1670   -1.8270 c         1 MOL      0.423672
     60 O10         4.3840    6.4170   -1.9480 o         1 MOL     -0.569984
     61 C21         2.2880    4.6550   -3.2690 c3        1 MOL     -0.055433
     62 C22         1.4680    3.6960   -2.4790 c         1 MOL      0.754530
     63 O11         1.0200    2.7340   -3.1140 o         1 MOL     -0.699190
     64 O12         1.2480    3.8950   -1.2740 o         1 MOL     -0.699190
     65 H26         3.3080    2.4050   -3.5630 hn        1 MOL      0.291443
     66 H27         4.4320    4.8790   -3.7830 h1        1 MOL      0.087833
     67 H28         2.0410    4.6050   -4.3250 hc        1 MOL     -0.008348
     68 H29         2.0710    5.6710   -2.9450 hc        1 MOL     -0.008348
     69 N6          4.4410    4.5020   -0.7130 n         1 MOL     -0.140595
     70 C23         4.5580    5.2710    0.5920 c3        1 MOL     -0.412670
     71 C24         3.4070    5.9530    1.2240 c         1 MOL      0.559704
     72 O13         3.6910    6.6990    2.1330 o         1 MOL     -0.584479
     73 H30         4.4650    3.4950   -0.6960 hn        1 MOL      0.267795
     74 H31         5.2870    6.0580    0.3760 h1        1 MOL      0.171852
     75 H32         5.0750    4.6400    1.3050 h1        1 MOL      0.171852
     76 N7          2.2560    5.8310    0.6250 n         1 MOL      0.070413
     77 C25         0.9830    6.4690    0.9960 c3        1 MOL      0.111918
     78 C26         0.4970    6.0800    2.4310 c         1 MOL      0.475972
     79 O14         0.0610    6.9650    3.1520 o         1 MOL     -0.501961
     80 C27         0.9950    8.0090    0.8400 c3        1 MOL     -0.136100
     81 C28         1.4720    8.4570   -0.5220 c3        1 MOL      0.094112
     82 C29         0.9600    9.9040   -0.9350 c         1 MOL      0.546527
     83 N8          1.4780   10.4020   -2.0320 n         1 MOL     -0.758572
     84 O15         0.2330   10.5950   -0.2260 o         1 MOL     -0.549659
     85 H33         2.2000    5.2510   -0.1990 hn        1 MOL     -0.030835
     86 H34         0.2250    6.1300    0.2820 h1        1 MOL      0.072493
     87 H35         1.6670    8.4690    1.5640 hc        1 MOL      0.025825
     88 H36        -0.0400    8.3620    0.8560 hc        1 MOL      0.025825
     89 H37         1.0540    7.8020   -1.2800 hc        1 MOL     -0.011631
     90 H38         2.5420    8.3370   -0.6720 hc        1 MOL     -0.011631
     91 H39         2.0380    9.7890   -2.5970 hn        1 MOL      0.347577
     92 H40         1.1420   11.3370   -2.2480 hn        1 MOL      0.347577
     93 N9          0.5540    4.7880    2.8480 n         1 MOL     -0.474872
     94 C30         0.2740    4.2420    4.1870 c3        1 MOL     -0.062129
     95 C31        -0.6690    2.9920    4.1240 c         1 MOL      0.641475
     96 O16        -1.2370    2.6190    5.1080 o         1 MOL     -0.583991
     97 C32         1.5590    3.8920    4.9940 c3        1 MOL      0.090576
     98 C33         2.5450    3.0010    4.2630 c3        1 MOL     -0.158534
     99 C34         2.3340    5.1380    5.3070 c3        1 MOL     -0.158534
    100 H41         0.9520    4.0670    2.2540 hn        1 MOL      0.244736
    101 H42        -0.3460    4.9350    4.7490 h1        1 MOL      0.126877
    102 H43         1.3070    3.3500    5.9120 hc        1 MOL     -0.004763
    103 H44         2.1000    2.0420    3.9980 hc        1 MOL      0.044725
    104 H45         2.8900    3.5110    3.3570 hc        1 MOL      0.044725
    105 H46         3.4010    2.7210    4.8810 hc        1 MOL      0.044725
    106 H47         1.7160    5.7600    5.9520 hc        1 MOL      0.044725
    107 H48         3.1910    4.8670    5.9200 hc        1 MOL      0.044725
    108 H49         2.7270    5.5960    4.3880 hc        1 MOL      0.044725
    109 N10        -0.9180    2.4450    2.8970 n         1 MOL     -0.529139
    110 C35        -1.8200    1.3690    2.6020 c3        1 MOL      0.255033
    111 C36        -2.6670    1.7060    1.4190 c         1 MOL      0.571550
    112 O17        -2.7100    2.7910    0.9000 o         1 MOL     -0.511566
    113 C37        -0.9680    0.0790    2.5000 c3        1 MOL     -0.075087
    114 C38        -1.6440   -1.1350    2.9650 c         1 MOL      0.490785
    115 N11        -1.1250   -1.7210    4.0420 n         1 MOL     -0.735033
    116 O18        -2.6630   -1.5800    2.4020 o         1 MOL     -0.511009
    117 H50        -0.5700    2.9030    2.0650 hn        1 MOL      0.260698
    118 H51        -2.4810    1.2790    3.4730 h1        1 MOL      0.047617
    119 H52        -0.0410    0.1030    3.0850 hc        1 MOL      0.060809
    120 H53        -0.6260   -0.0810    1.4770 hc        1 MOL      0.060809
    121 H54        -0.3680   -1.2540    4.5390 hn        1 MOL      0.357832
    122 H55        -1.6190   -2.4880    4.4590 hn        1 MOL      0.357832
    123 N12        -3.4260    0.6830    0.9260 n         1 MOL     -0.716636
    124 C39        -4.4460    0.8290   -0.0930 c3        1 MOL      0.258115
    125 C40        -5.4890   -0.2460   -0.0560 c         1 MOL      0.556097
    126 O19        -5.1680   -1.4280    0.1510 o         1 MOL     -0.529911
    127 C41        -3.7080    0.7520   -1.4120 c3        1 MOL     -0.107159
    128 C42        -4.3390    1.5910   -2.5740 ca        1 MOL     -0.073730
    129 C43        -3.8230    2.9220   -2.9060 ca        1 MOL     -0.107333
    130 C44        -5.3840    1.0780   -3.3260 ca        1 MOL     -0.107333
    131 C45        -4.5180    3.7260   -3.8720 ca        1 MOL     -0.263745
    132 C46        -5.9420    1.8160   -4.3910 ca        1 MOL     -0.263745
    133 C47        -5.5470    3.1740   -4.6570 ca        1 MOL      0.314682
    134 O20        -6.0030    3.9180   -5.6550 oh        1 MOL     -0.467136
    135 H56        -3.2580   -0.2650    1.2340 hn        1 MOL      0.311483
    136 H57        -4.9620    1.7790    0.0720 h1        1 MOL      0.077240
    137 H58        -3.5400   -0.3020   -1.6140 hc        1 MOL      0.073352
    138 H59        -2.7240    1.2110   -1.3220 hc        1 MOL      0.073352
    139 H60        -2.9400    3.2860   -2.4040 ha        1 MOL      0.155987
    140 H61        -5.8260    0.1150   -3.0990 ha        1 MOL      0.155987
    141 H62        -4.1060    4.6720   -4.2020 ha        1 MOL      0.136606
    142 H63        -6.6780    1.2900   -4.9820 ha        1 MOL      0.136606
    143 H64        -6.6850    3.4930   -6.1730 ho        1 MOL      0.351484
    144 N13        -6.7930    0.2180   -0.2480 n         1 MOL     -0.662181
    145 C48        -7.9930   -0.5770   -0.2480 c3        1 MOL      0.141466
    146 C49        -8.2200   -1.4010   -1.6050 c         1 MOL      0.565607
    147 O21        -8.5370   -0.6850   -2.5600 o         1 MOL     -0.581927
    148 C50        -9.1410    0.5200   -0.0880 c3        1 MOL     -0.079275
    149 C51        -9.0570    1.2670    1.2370 c3        1 MOL     -0.081134
    150 C52       -10.3140    1.8990    1.5980 c         1 MOL      0.689583
    151 O22       -11.1400    1.1810    2.2420 o         1 MOL     -0.737548
    152 O23       -10.4280    3.0950    1.3230 o         1 MOL     -0.737548
    153 H65        -6.9020    1.2010   -0.4570 hn        1 MOL      0.339270
    154 H66        -7.9670   -1.2540    0.6020 h1        1 MOL      0.126547
    155 H67       -10.0240   -0.1210   -0.1300 hc        1 MOL      0.051400
    156 H68        -9.1750    1.2080   -0.9380 hc        1 MOL      0.051400
    157 H69        -8.2400    1.9850    1.2270 hc        1 MOL      0.000192
    158 H70        -8.8170    0.5010    1.9680 hc        1 MOL      0.000192
    159 N14        -8.0090   -2.7500   -1.6100 n         1 MOL     -0.519616
    160 C53        -7.2240   -3.6590   -0.7580 c3        1 MOL     -0.062388
    161 C54        -7.7460   -3.9340    0.6130 c         1 MOL      0.498486
    162 O24        -8.8930   -3.6150    0.8880 o         1 MOL     -0.558026
    163 C55        -7.1670   -4.9530   -1.6190 c3        1 MOL     -0.089909
    164 C56        -6.4210   -6.1480   -1.0590 c3        1 MOL     -0.233839
    165 C57        -5.0790   -5.6820   -0.5360 c         1 MOL      0.640692
    166 O25        -4.1170   -5.6820   -1.3390 o         1 MOL     -0.717824
    167 O26        -4.7730   -5.5380    0.6470 o         1 MOL     -0.717824
    168 H71        -8.2170   -3.1040   -2.5310 hn        1 MOL      0.296380
    169 H72        -6.1660   -3.3840   -0.7860 h1        1 MOL      0.147551
    170 H73        -6.7280   -4.6180   -2.5560 hc        1 MOL      0.062066
    171 H74        -8.1450   -5.2500   -2.0140 hc        1 MOL      0.062066
    172 H75        -6.3050   -6.8420   -1.8940 hc        1 MOL      0.081620
    173 H76        -6.9910   -6.5920   -0.2410 hc        1 MOL      0.081620
    174 N15        -6.9020   -4.2460    1.5730 n         1 MOL     -0.294538
    175 C58        -7.0830   -4.2440    3.0140 c3        1 MOL     -0.108490
    176 H77        -6.6910   -5.1730    3.4300 h1        1 MOL      0.065656
    177 H78        -6.5490   -3.3980    3.4470 h1        1 MOL      0.065656
    178 H79        -8.1440   -4.1620    3.2470 h1        1 MOL      0.065656
    179 H80        -5.9510   -4.3950    1.2610 hn        1 MOL      0.310225
    180 Ca1        -2.1220   -5.1650    0.2170 Ca        1 MOL      1.788805
    181 O27        -3.0520   -2.8830   -0.7570 oh        1 MOL     -0.930754
    182 H81        -2.4590   -2.3600   -1.2960 ho        1 MOL      0.438209
    183 H82        -3.7490   -2.2800   -0.4970 ho        1 MOL      0.438209
    184 O28        -2.8840   -4.1820    2.5620 oh        1 MOL     -0.930754
    185 O29        -1.3800   -7.1920   -1.6230 oh        1 MOL     -0.930754
    186 H83        -3.3790   -3.3740    2.5770 ho        1 MOL      0.438209
    187 H84        -0.7390   -6.8130   -2.2250 ho        1 MOL      0.438209
    188 H85        -2.0680   -3.9720    3.0390 ho        1 MOL      0.438209
    189 H86        -1.4070   -8.1200   -1.8570 ho        1 MOL      0.438209
    190 O30        -0.8490   -4.4130   -1.9100 oh        1 MOL     -0.930754
    191 H87         0.0520   -4.1270   -2.0660 ho        1 MOL      0.438209
    192 H88        -1.2760   -4.3370   -2.7700 ho        1 MOL      0.438209
    193 O31        -0.4440   -3.1580    0.6600 oh        1 MOL     -0.930754
    194 H89         0.2260   -2.9000    1.2910 ho        1 MOL      0.438209
    195 H90        -0.1890   -2.7380   -0.1640 ho        1 MOL      0.438209
@<TRIPOS>BOND
     1    1    2 1   
     2    1    4 1   
     3    1    5 1   
     4    1    6 1   
     5    2    3 2   
     6    2    7 1   
     7    7    8 1   
     8    7   15 1   
     9    8    9 1   
    10    8   11 1   
    11    8   16 1   
    12    9   10 2   
    13    9   19 1   
    14   11   12 1   
    15   11   17 1   
    16   11   18 1   
    17   12   13 1   
    18   12   14 1   
    19   19   20 1   
    20   19   27 1   
    21   20   21 1   
    22   20   23 1   
    23   20   28 1   
    24   21   22 2   
    25   21   38 1   
    26   23   24 1   
    27   23   25 1   
    28   23   29 1   
    29   24   26 1   
    30   24   30 1   
    31   24   31 1   
    32   25   32 1   
    33   25   33 1   
    34   25   34 1   
    35   26   35 1   
    36   26   36 1   
    37   26   37 1   
    38   38   39 1   
    39   38   46 1   
    40   39   40 1   
    41   39   42 1   
    42   39   47 1   
    43   40   41 2   
    44   40   50 1   
    45   42   43 1   
    46   42   48 1   
    47   42   49 1   
    48   43   44 1   
    49   43   45 1   
    50   50   51 1   
    51   50   54 1   
    52   51   52 1   
    53   51   55 1   
    54   51   56 1   
    55   52   53 2   
    56   52   57 1   
    57   57   58 1   
    58   57   65 1   
    59   58   59 1   
    60   58   61 1   
    61   58   66 1   
    62   59   60 2   
    63   59   69 1   
    64   61   62 1   
    65   61   67 1   
    66   61   68 1   
    67   62   63 1   
    68   62   64 1   
    69   69   70 1   
    70   69   73 1   
    71   70   71 1   
    72   70   74 1   
    73   70   75 1   
    74   71   72 2   
    75   71   76 1   
    76   76   77 1   
    77   76   85 1   
    78   77   78 1   
    79   77   80 1   
    80   77   86 1   
    81   78   79 2   
    82   78   93 1   
    83   80   81 1   
    84   80   87 1   
    85   80   88 1   
    86   81   82 1   
    87   81   89 1   
    88   81   90 1   
    89   82   83 1   
    90   82   84 2   
    91   83   91 1   
    92   83   92 1   
    93   93   94 1   
    94   93  100 1   
    95   94   95 1   
    96   94   97 1   
    97   94  101 1   
    98   95   96 2   
    99   95  109 1   
   100   97   98 1   
   101   97   99 1   
   102   97  102 1   
   103   98  103 1   
   104   98  104 1   
   105   98  105 1   
   106   99  106 1   
   107   99  107 1   
   108   99  108 1   
   109  109  110 1   
   110  109  117 1   
   111  110  111 1   
   112  110  113 1   
   113  110  118 1   
   114  111  112 2   
   115  111  123 1   
   116  113  114 1   
   117  113  119 1   
   118  113  120 1   
   119  114  115 1   
   120  114  116 2   
   121  115  121 1   
   122  115  122 1   
   123  123  124 1   
   124  123  135 1   
   125  124  125 1   
   126  124  127 1   
   127  124  136 1   
   128  125  126 2   
   129  125  144 1   
   130  127  128 1   
   131  127  137 1   
   132  127  138 1   
   133  128  129 ar  
   134  128  130 ar  
   135  129  131 ar  
   136  129  139 1   
   137  130  132 ar  
   138  130  140 1   
   139  131  133 ar  
   140  131  141 1   
   141  132  133 ar  
   142  132  142 1   
   143  133  134 1   
   144  134  143 1   
   145  144  145 1   
   146  144  153 1   
   147  145  146 1   
   148  145  148 1   
   149  145  154 1   
   150  146  147 2   
   151  146  159 1   
   152  148  149 1   
   153  148  155 1   
   154  148  156 1   
   155  149  150 1   
   156  149  157 1   
   157  149  158 1   
   158  150  151 1   
   159  150  152 1   
   160  159  160 1   
   161  159  168 1   
   162  160  161 1   
   163  160  163 1   
   164  160  169 1   
   165  161  162 2   
   166  161  174 1   
   167  163  164 1   
   168  163  170 1   
   169  163  171 1   
   170  164  165 1   
   171  164  172 1   
   172  164  173 1   
   173  165  166 1   
   174  165  167 1   
   175  174  175 1   
   176  174  179 1   
   177  175  176 1   
   178  175  177 1   
   179  175  178 1   
   180  181  182 1   
   181  181  183 1   
   182  184  186 1   
   183  184  188 1   
   184  185  187 1   
   185  185  189 1   
   186  190  191 1   
   187  190  192 1   
   188  193  194 1   
   189  193  195 1   
@<TRIPOS>SUBSTRUCTURE
     1 MOL         1 TEMP              0 ****  ****    0 ROOT
