@<TRIPOS>MOLECULE
MOL
  192   187     1     0     0
SMALL
resp


@<TRIPOS>ATOM
      1 C1          9.9050    1.1550    0.3700 c3        1 MOL     -0.423231
      2 C2          8.4910    0.6240    0.0790 c         1 MOL      0.568126
      3 O1          7.5960    0.6340    0.9560 o         1 MOL     -0.600963
      4 H1         10.4020    0.4920    1.0780 hc        1 MOL      0.114525
      5 H2         10.4780    1.1910   -0.5560 hc        1 MOL      0.114525
      6 H3          9.8370    2.1560    0.7970 hc        1 MOL      0.114525
      7 N1          8.3610    0.0520   -1.0880 n         1 MOL     -0.306287
      8 C3          7.1580   -0.5680   -1.5780 c3        1 MOL     -0.112233
      9 C4          6.8630   -1.9720   -1.0080 c         1 MOL      0.381901
     10 O2          6.8870   -2.9920   -1.7330 o         1 MOL     -0.415791
     11 C5          7.1590   -0.6570   -3.1570 c3        1 MOL     -0.321040
     12 C6          8.4540   -1.2500   -3.7790 c         1 MOL      0.754946
     13 O3          8.5050   -1.1200   -5.0280 o         1 MOL     -0.645167
     14 O4          9.4170   -1.7250   -3.1020 o         1 MOL     -0.645167
     15 H4          9.2330    0.0060   -1.5990 hn        1 MOL      0.258373
     16 H5          6.2910   -0.0000   -1.2590 h1        1 MOL      0.146552
     17 H6          7.1870    0.3790   -3.4890 hc        1 MOL      0.118527
     18 H7          6.2690   -1.1850   -3.4910 hc        1 MOL      0.118527
     19 N2          6.5680   -2.0070    0.3180 n         1 MOL     -0.060701
     20 C7          6.1080   -3.1490    1.0880 c3        1 MOL      0.108793
     21 C8          4.6880   -3.6070    0.6160 c         1 MOL      0.390910
     22 O5          4.5650   -4.6530   -0.0450 o         1 MOL     -0.489939
     23 C9          6.3970   -3.1900    2.5930 c3        1 MOL      0.215885
     24 C10         7.7590   -2.6780    2.8490 c3        1 MOL     -0.259061
     25 C11         8.1110   -3.1420    4.3400 c3        1 MOL     -0.028601
     26 C12         9.5580   -2.8930    4.6770 c3        1 MOL      0.053481
     27 N3          9.9480   -3.4850    6.0080 n4        1 MOL     -0.195191
     28 H8          6.9240   -1.1860    0.7870 hn        1 MOL      0.024438
     29 H9          6.7480   -3.9440    0.7020 h1        1 MOL     -0.014643
     30 H10         6.2770   -4.1890    3.0050 hc        1 MOL     -0.049017
     31 H11         5.6300   -2.5290    2.9960 hc        1 MOL     -0.049017
     32 H12         7.7720   -1.5980    2.6790 hc        1 MOL      0.108104
     33 H13         8.3710   -3.2490    2.1530 hc        1 MOL      0.108104
     34 H14         7.9410   -4.2040    4.5200 hc        1 MOL      0.037080
     35 H15         7.5470   -2.6530    5.1300 hc        1 MOL      0.037080
     36 H16         9.8440   -1.8350    4.6610 hx        1 MOL      0.073361
     37 H17        10.1230   -3.3680    3.8830 hx        1 MOL      0.073361
     38 H18         9.4270   -3.1600    6.8180 hn        1 MOL      0.233139
     39 H19         9.5500   -4.3940    6.0930 hn        1 MOL      0.233139
     40 H20        10.9460   -3.4220    6.1600 hn        1 MOL      0.233139
     41 N4          3.5900   -2.8380    0.8000 n         1 MOL     -0.441235
     42 C13         3.5110   -1.4780    1.2690 c3        1 MOL      0.023194
     43 C14         3.7250   -0.4120    0.1350 c         1 MOL      0.286783
     44 O6          3.7190   -0.7300   -1.0220 o         1 MOL     -0.384738
     45 C15         2.2840   -1.1830    2.1220 c3        1 MOL     -0.151089
     46 C16         0.9530   -1.6540    1.5730 c         1 MOL      0.595095
     47 O7          0.7810   -1.3320    0.3610 o         1 MOL     -0.633958
     48 O8          0.0030   -2.2180    2.2010 o         1 MOL     -0.633958
     49 H21         2.7700   -3.1180    0.2800 hn        1 MOL      0.362543
     50 H22         4.3450   -1.2820    1.9370 h1        1 MOL      0.105905
     51 H23         2.2570   -0.1590    2.4900 hc        1 MOL      0.030236
     52 H24         2.4040   -1.7740    3.0340 hc        1 MOL      0.030236
     53 N5          4.1060    0.8250    0.5090 n         1 MOL     -0.239377
     54 C17         4.2860    1.8560   -0.4600 c3        1 MOL     -0.013132
     55 C18         2.9090    2.2540   -1.1640 c         1 MOL      0.615264
     56 O9          1.7880    1.7520   -0.8800 o         1 MOL     -0.611160
     57 H25         4.0940    1.0900    1.4800 hn        1 MOL      0.236027
     58 H26         5.0400    1.6270   -1.2140 h1        1 MOL      0.051291
     59 H27         4.6080    2.7650    0.0350 h1        1 MOL      0.051291
     60 N6          2.9690    3.3060   -1.9970 n         1 MOL     -0.590686
     61 C19         1.8760    4.0000   -2.7000 c3        1 MOL      0.454885
     62 C20         2.2230    5.5000   -2.8250 c         1 MOL      0.422465
     63 O10         3.3540    5.9090   -2.8460 o         1 MOL     -0.509432
     64 C21         1.6530    3.3330   -4.0490 c3        1 MOL     -0.339731
     65 C22         1.3050    1.8560   -3.9440 c         1 MOL      0.658390
     66 O11         0.3850    1.4760   -3.1610 o         1 MOL     -0.638104
     67 O12         1.8210    0.9620   -4.6160 o         1 MOL     -0.638104
     68 H28         3.8490    3.7720   -2.1660 hn        1 MOL      0.290193
     69 H29         0.9260    3.8570   -2.1820 h1        1 MOL     -0.079212
     70 H30         2.5520    3.4990   -4.6610 hc        1 MOL      0.086990
     71 H31         0.8490    3.8480   -4.5680 hc        1 MOL      0.086990
     72 N7          1.2980    6.4600   -3.0650 n         1 MOL     -0.459571
     73 C23        -0.1590    6.2850   -3.1610 c3        1 MOL     -0.058774
     74 C24        -0.7980    6.2780   -1.7760 c         1 MOL      0.607621
     75 O13        -0.5470    7.0810   -0.8760 o         1 MOL     -0.580397
     76 H32         1.5950    7.4010   -3.2640 hn        1 MOL      0.335679
     77 H33        -0.3750    5.3480   -3.6490 h1        1 MOL      0.071691
     78 H34        -0.7060    7.0700   -3.6770 h1        1 MOL      0.071691
     79 N8         -1.6680    5.3600   -1.5670 n         1 MOL     -0.525208
     80 C25        -2.3580    5.0270   -0.3260 c3        1 MOL     -0.063995
     81 C26        -1.5690    3.8720    0.2660 c         1 MOL      1.080186
     82 O14        -1.2440    2.8710   -0.4060 o         1 MOL     -0.808578
     83 C27        -3.8520    4.6590   -0.5340 c3        1 MOL      0.415796
     84 C28        -4.5590    4.9530    0.7300 c3        1 MOL     -0.239696
     85 O15        -4.0480    3.3050   -0.8910 oh        1 MOL     -0.627186
     86 H35        -1.8770    4.8280   -2.3920 hn        1 MOL      0.259619
     87 H36        -2.2320    5.8830    0.3240 h1        1 MOL      0.089284
     88 H37        -4.2840    5.3300   -1.2790 h1        1 MOL      0.003183
     89 H38        -4.7040    3.2010   -1.5880 ho        1 MOL      0.408847
     90 H39        -4.2820    5.9450    1.0820 hc        1 MOL      0.037177
     91 H40        -5.6260    4.7740    0.6520 hc        1 MOL      0.037177
     92 H41        -4.1400    4.4010    1.5640 hc        1 MOL      0.037177
     93 N9         -1.2430    4.0370    1.5550 n         1 MOL     -0.652451
     94 C29        -0.5470    3.1250    2.4620 c3        1 MOL      0.048280
     95 C30        -1.0230    1.6700    2.3330 c         1 MOL      0.410891
     96 O16        -0.5560    0.9430    1.4770 o         1 MOL     -0.476714
     97 C31         0.9290    3.2690    2.3680 c3        1 MOL      0.361311
     98 C32         1.4520    4.6720    2.0220 c3        1 MOL     -0.271346
     99 C33         1.6200    2.6920    3.6410 c3        1 MOL     -0.509020
    100 C34         1.3490    5.7390    3.1420 c3        1 MOL     -0.326691
    101 H42        -1.4750    4.9480    1.9230 hn        1 MOL      0.314271
    102 H43        -0.8270    3.4780    3.4520 h1        1 MOL      0.031464
    103 H44         1.2860    2.6780    1.5360 hc        1 MOL     -0.059519
    104 H45         0.9200    5.0050    1.1250 hc        1 MOL      0.113560
    105 H46         2.5120    4.5880    1.7700 hc        1 MOL      0.113560
    106 H47         1.2250    3.1920    4.5200 hc        1 MOL      0.133037
    107 H48         1.4120    1.6190    3.6420 hc        1 MOL      0.133037
    108 H49         2.7100    2.7650    3.6230 hc        1 MOL      0.133037
    109 H50         0.2930    5.9190    3.3690 hc        1 MOL      0.096281
    110 H51         2.0270    5.4110    3.9260 hc        1 MOL      0.096281
    111 H52         1.6380    6.7440    2.8520 hc        1 MOL      0.096281
    112 N10        -2.0450    1.3440    3.1020 n         1 MOL     -0.313000
    113 C35        -2.5740   -0.0480    3.1080 c3        1 MOL     -0.115336
    114 C36        -4.0890   -0.2390    2.9300 c         1 MOL      0.486987
    115 O17        -4.7190   -1.2070    3.2820 o         1 MOL     -0.557799
    116 C37        -2.0520   -0.7660    4.3790 c3        1 MOL      0.489060
    117 C38        -2.5070   -0.1410    5.7680 c3        1 MOL     -0.269571
    118 O18        -0.6460   -0.8110    4.2890 oh        1 MOL     -0.654593
    119 H53        -2.3670    1.9790    3.8210 hn        1 MOL      0.259782
    120 H54        -2.1040   -0.6000    2.2870 h1        1 MOL      0.109132
    121 H55        -2.4300   -1.7900    4.3640 h1        1 MOL     -0.016084
    122 H56        -0.4080   -1.2290    3.4600 ho        1 MOL      0.370249
    123 H57        -2.5140    0.9470    5.7400 hc        1 MOL      0.054895
    124 H58        -3.4830   -0.5190    6.0860 hc        1 MOL      0.054895
    125 H59        -1.7100   -0.3930    6.4650 hc        1 MOL      0.054895
    126 N11        -4.7850    0.7890    2.4060 n         1 MOL     -0.054442
    127 C39        -6.2530    0.7940    2.1610 c3        1 MOL     -0.283152
    128 C40        -6.4860   -0.0330    0.8940 c         1 MOL      0.792560
    129 O19        -6.4290    0.4920   -0.2300 o         1 MOL     -0.569048
    130 C41        -6.7940    2.2050    2.1650 c3        1 MOL      0.540232
    131 C42        -8.2990    2.3280    2.1460 c3        1 MOL     -0.374987
    132 O20        -6.2420    2.9920    3.2280 oh        1 MOL     -0.657295
    133 H60        -4.2860    1.6540    2.2710 hn        1 MOL      0.091119
    134 H61        -6.7130    0.3490    3.0410 h1        1 MOL      0.101076
    135 H62        -6.4310    2.6480    1.2330 h1        1 MOL     -0.076555
    136 H63        -6.6400    3.8630    3.1880 ho        1 MOL      0.413865
    137 H64        -8.6860    1.8410    3.0430 hc        1 MOL      0.088450
    138 H65        -8.5760    3.3690    2.2800 hc        1 MOL      0.088450
    139 H66        -8.7100    1.7790    1.2950 hc        1 MOL      0.088450
    140 N12        -6.6480   -1.4330    0.9450 n         1 MOL     -0.836710
    141 C43        -6.5050   -2.4510   -0.1890 c3        1 MOL      0.431882
    142 C44        -5.1160   -2.4660   -0.9510 c         1 MOL      0.444101
    143 O21        -4.5390   -1.4350   -1.1680 o         1 MOL     -0.451577
    144 C45        -7.7300   -2.3300   -1.1710 c3        1 MOL     -0.578976
    145 C46        -9.0880   -2.1930   -0.4120 c3        1 MOL      0.512547
    146 C47       -10.2210   -2.1510   -1.4170 c3        1 MOL     -0.023243
    147 C48       -11.5420   -1.9530   -0.8310 c3        1 MOL     -0.086137
    148 N13       -12.0760   -3.1320    0.0280 n4        1 MOL     -0.299324
    149 H67        -6.4800   -1.7280    1.8990 hn        1 MOL      0.338949
    150 H68        -6.6340   -3.4480    0.2260 h1        1 MOL      0.028032
    151 H69        -7.7800   -3.2810   -1.7050 hc        1 MOL      0.136814
    152 H70        -7.5650   -1.4920   -1.8490 hc        1 MOL      0.136814
    153 H71        -9.1820   -1.2980    0.2150 hc        1 MOL     -0.104179
    154 H72        -9.0320   -3.0650    0.2310 hc        1 MOL     -0.104179
    155 H73       -10.3060   -3.1410   -1.8700 hc        1 MOL      0.033722
    156 H74       -10.0130   -1.3520   -2.1280 hc        1 MOL      0.033722
    157 H75       -12.2200   -1.8370   -1.6750 hx        1 MOL      0.110758
    158 H76       -11.6670   -1.0120   -0.2890 hx        1 MOL      0.110758
    159 H77       -12.9380   -2.9180    0.5090 hn        1 MOL      0.228898
    160 H78       -12.3580   -3.9350   -0.5170 hn        1 MOL      0.228898
    161 H79       -11.3890   -3.4470    0.6860 hn        1 MOL      0.228898
    162 N14        -4.5780   -3.5860   -1.3010 n         1 MOL     -0.359720
    163 C49        -3.3000   -3.7830   -1.8280 c3        1 MOL      0.008920
    164 C50        -2.1780   -3.1330   -0.8810 c         1 MOL      0.408996
    165 O22        -1.5930   -2.1260   -1.1760 o         1 MOL     -0.485332
    166 C51        -2.9990   -5.2850   -2.1950 c3        1 MOL      0.046287
    167 C52        -3.9360   -5.7830   -3.2200 c3        1 MOL     -0.432465
    168 C53        -3.4850   -7.2320   -3.4920 c         1 MOL      0.708484
    169 O23        -2.5200   -7.5490   -4.2400 o         1 MOL     -0.629390
    170 O24        -4.0480   -8.1330   -2.8370 o         1 MOL     -0.629390
    171 H80        -4.9920   -4.4430   -0.9750 hn        1 MOL      0.244451
    172 H81        -3.2480   -3.2860   -2.8010 h1        1 MOL      0.076263
    173 H82        -2.9330   -5.8750   -1.2830 hc        1 MOL      0.081049
    174 H83        -1.9610   -5.4120   -2.5060 hc        1 MOL      0.081049
    175 H84        -3.6320   -5.1730   -4.0710 hc        1 MOL      0.092472
    176 H85        -5.0040   -5.6500   -3.0800 hc        1 MOL      0.092472
    177 N15        -1.9180   -3.5970    0.3420 n         1 MOL     -0.329359
    178 C54        -2.5840   -4.7080    1.0690 c3        1 MOL     -0.015549
    179 H86        -2.4470   -4.5730    2.1420 h1        1 MOL      0.028399
    180 H87        -3.6490   -4.7080    0.8370 h1        1 MOL      0.028399
    181 H88        -2.1450   -5.6580    0.7650 h1        1 MOL      0.028399
    182 H89        -1.3640   -3.0040    0.9360 hn        1 MOL      0.320304
    183 Ca1        -0.5120    0.3690   -1.1090 Ca        1 MOL      1.742748
    184 O25        -3.1420    0.5900   -0.2180 oh        1 MOL     -0.885589
    185 H90        -3.5190    1.4160   -0.5180 ho        1 MOL      0.420158
    186 H91        -3.8370   -0.0510   -0.3420 ho        1 MOL      0.420158
    187 O26        -2.3900    0.1730   -3.1270 oh        1 MOL     -0.885589
    188 H92        -1.9090    0.1400   -3.9500 ho        1 MOL      0.420158
    189 H93        -3.2860   -0.0680   -3.3540 ho        1 MOL      0.420158
    190 O27         0.8920   -1.4540   -2.8690 oh        1 MOL     -0.885589
    191 H94         1.6110   -1.9690   -2.4870 ho        1 MOL      0.420158
    192 H95         1.3160   -0.8960   -3.5150 ho        1 MOL      0.420158
@<TRIPOS>BOND
     1    1    2 1   
     2    1    4 1   
     3    1    5 1   
     4    1    6 1   
     5    2    3 2   
     6    2    7 1   
     7    7    8 1   
     8    7   15 1   
     9    8    9 1   
    10    8   11 1   
    11    8   16 1   
    12    9   10 2   
    13    9   19 1   
    14   11   12 1   
    15   11   17 1   
    16   11   18 1   
    17   12   13 1   
    18   12   14 1   
    19   19   20 1   
    20   19   28 1   
    21   20   21 1   
    22   20   23 1   
    23   20   29 1   
    24   21   22 2   
    25   21   41 1   
    26   23   24 1   
    27   23   30 1   
    28   23   31 1   
    29   24   25 1   
    30   24   32 1   
    31   24   33 1   
    32   25   26 1   
    33   25   34 1   
    34   25   35 1   
    35   26   27 1   
    36   26   36 1   
    37   26   37 1   
    38   27   38 1   
    39   27   39 1   
    40   27   40 1   
    41   41   42 1   
    42   41   49 1   
    43   42   43 1   
    44   42   45 1   
    45   42   50 1   
    46   43   44 2   
    47   43   53 1   
    48   45   46 1   
    49   45   51 1   
    50   45   52 1   
    51   46   47 1   
    52   46   48 1   
    53   53   54 1   
    54   53   57 1   
    55   54   55 1   
    56   54   58 1   
    57   54   59 1   
    58   55   56 2   
    59   55   60 1   
    60   60   61 1   
    61   60   68 1   
    62   61   62 1   
    63   61   64 1   
    64   61   69 1   
    65   62   63 2   
    66   62   72 1   
    67   64   65 1   
    68   64   70 1   
    69   64   71 1   
    70   65   66 1   
    71   65   67 1   
    72   72   73 1   
    73   72   76 1   
    74   73   74 1   
    75   73   77 1   
    76   73   78 1   
    77   74   75 2   
    78   74   79 1   
    79   79   80 1   
    80   79   86 1   
    81   80   81 1   
    82   80   83 1   
    83   80   87 1   
    84   81   82 2   
    85   81   93 1   
    86   83   84 1   
    87   83   85 1   
    88   83   88 1   
    89   84   90 1   
    90   84   91 1   
    91   84   92 1   
    92   85   89 1   
    93   93   94 1   
    94   93  101 1   
    95   94   95 1   
    96   94   97 1   
    97   94  102 1   
    98   95   96 2   
    99   95  112 1   
   100   97   98 1   
   101   97   99 1   
   102   97  103 1   
   103   98  100 1   
   104   98  104 1   
   105   98  105 1   
   106   99  106 1   
   107   99  107 1   
   108   99  108 1   
   109  100  109 1   
   110  100  110 1   
   111  100  111 1   
   112  112  113 1   
   113  112  119 1   
   114  113  114 1   
   115  113  116 1   
   116  113  120 1   
   117  114  115 2   
   118  114  126 1   
   119  116  117 1   
   120  116  118 1   
   121  116  121 1   
   122  117  123 1   
   123  117  124 1   
   124  117  125 1   
   125  118  122 1   
   126  126  127 1   
   127  126  133 1   
   128  127  128 1   
   129  127  130 1   
   130  127  134 1   
   131  128  129 2   
   132  128  140 1   
   133  130  131 1   
   134  130  132 1   
   135  130  135 1   
   136  131  137 1   
   137  131  138 1   
   138  131  139 1   
   139  132  136 1   
   140  140  141 1   
   141  140  149 1   
   142  141  142 1   
   143  141  144 1   
   144  141  150 1   
   145  142  143 2   
   146  142  162 1   
   147  144  145 1   
   148  144  151 1   
   149  144  152 1   
   150  145  146 1   
   151  145  153 1   
   152  145  154 1   
   153  146  147 1   
   154  146  155 1   
   155  146  156 1   
   156  147  148 1   
   157  147  157 1   
   158  147  158 1   
   159  148  159 1   
   160  148  160 1   
   161  148  161 1   
   162  162  163 1   
   163  162  171 1   
   164  163  164 1   
   165  163  166 1   
   166  163  172 1   
   167  164  165 2   
   168  164  177 1   
   169  166  167 1   
   170  166  173 1   
   171  166  174 1   
   172  167  168 1   
   173  167  175 1   
   174  167  176 1   
   175  168  169 1   
   176  168  170 1   
   177  177  178 1   
   178  177  182 1   
   179  178  179 1   
   180  178  180 1   
   181  178  181 1   
   182  184  185 1   
   183  184  186 1   
   184  187  188 1   
   185  187  189 1   
   186  190  191 1   
   187  190  192 1   
@<TRIPOS>SUBSTRUCTURE
     1 MOL         1 TEMP              0 ****  ****    0 ROOT
