@<TRIPOS>MOLECULE
MOL
  192   187     1     0     0
SMALL
resp


@<TRIPOS>ATOM
      1 C1         -4.5720   -5.5860   -2.7320 c3        1 MOL     -0.384921
      2 C2         -5.1780   -4.3850   -1.8030 c         1 MOL      0.742694
      3 O1         -4.3850   -3.8490   -1.0150 o         1 MOL     -0.593318
      4 H1         -5.3670   -6.0010   -3.3510 hc        1 MOL      0.104311
      5 H2         -3.7840   -5.1890   -3.3700 hc        1 MOL      0.104311
      6 H3         -4.1640   -6.3690   -2.0930 hc        1 MOL      0.104311
      7 N1         -6.4290   -3.8640   -1.9890 n         1 MOL     -0.699182
      8 C3         -7.0130   -2.6590   -1.3850 c3        1 MOL      0.240168
      9 C4         -6.0400   -1.4580   -1.3760 c         1 MOL      0.257902
     10 O2         -5.6210   -1.0910   -0.2740 o         1 MOL     -0.407895
     11 C5         -7.6850   -2.9290    0.0390 c3        1 MOL     -0.032699
     12 C6         -7.0480   -3.9320    0.9410 c         1 MOL      0.638977
     13 O3         -6.2140   -3.5110    1.7750 o         1 MOL     -0.702729
     14 O4         -7.3880   -5.1510    0.8570 o         1 MOL     -0.702729
     15 H4         -6.9460   -4.3510   -2.7030 hn        1 MOL      0.337538
     16 H5         -7.8520   -2.3990   -2.0370 h1        1 MOL      0.041208
     17 H6         -8.7180   -3.1930   -0.1840 hc        1 MOL     -0.006097
     18 H7         -7.9230   -1.9970    0.5520 hc        1 MOL     -0.006097
     19 N2         -5.6240   -1.0110   -2.5490 n         1 MOL     -0.451392
     20 C7         -4.9360    0.2870   -2.8980 c3        1 MOL      0.035034
     21 C8         -5.5850    1.5550   -2.3360 c         1 MOL      0.312125
     22 O5         -5.7040    2.5560   -3.0530 o         1 MOL     -0.567092
     23 C9         -3.4300    0.3150   -2.6710 c3        1 MOL      0.466956
     24 C10        -2.5270    1.3860   -3.3310 c3        1 MOL     -0.063706
     25 C11        -2.8450   -1.0260   -3.1310 c3        1 MOL     -0.122941
     26 C12        -2.5210    1.4090   -4.8930 c3        1 MOL     -0.348284
     27 H8         -5.8500   -1.5480   -3.3660 hn        1 MOL      0.301053
     28 H9         -4.9000    0.3950   -3.9830 h1        1 MOL      0.043350
     29 H10        -3.2320    0.3500   -1.6070 hc        1 MOL     -0.250022
     30 H11        -1.4900    1.1630   -3.0840 hc        1 MOL      0.106281
     31 H12        -2.8550    2.3460   -2.9510 hc        1 MOL      0.106281
     32 H13        -3.1240   -1.8340   -2.4540 hc        1 MOL      0.007227
     33 H14        -3.2260   -1.3080   -4.1060 hc        1 MOL      0.007227
     34 H15        -1.7590   -0.8990   -3.0730 hc        1 MOL      0.007227
     35 H16        -3.5340    1.5510   -5.2540 hc        1 MOL      0.065639
     36 H17        -1.9370    2.2770   -5.1760 hc        1 MOL      0.065639
     37 H18        -2.1220    0.4580   -5.2580 hc        1 MOL      0.065639
     38 N3         -6.0890    1.6430   -1.1330 n         1 MOL      0.058830
     39 C13        -6.9510    2.6530   -0.5130 c3        1 MOL      0.033493
     40 C14        -6.4280    4.1440   -0.4790 c         1 MOL      0.598433
     41 O6         -7.1510    5.0510   -0.9160 o         1 MOL     -0.588217
     42 C15        -7.3420    2.0960    0.8740 c3        1 MOL     -0.082909
     43 C16        -8.6000    2.7380    1.4070 c         1 MOL      0.611425
     44 O7         -8.5850    3.0660    2.6340 o         1 MOL     -0.695102
     45 O8         -9.6290    2.7960    0.6740 o         1 MOL     -0.695102
     46 H19        -5.8620    0.8560   -0.5470 hn        1 MOL      0.051970
     47 H20        -7.9110    2.6520   -1.0270 h1        1 MOL     -0.016626
     48 H21        -6.5610    2.1630    1.6320 hc        1 MOL      0.027574
     49 H22        -7.6220    1.0590    0.6800 hc        1 MOL      0.027574
     50 N4         -5.1780    4.3890   -0.1870 n         1 MOL     -0.490290
     51 C17        -4.1170    3.4320    0.1870 c3        1 MOL      0.238156
     52 C18        -2.9660    4.0380    1.0010 c         1 MOL      0.561397
     53 O9         -2.6310    5.2140    0.8070 o         1 MOL     -0.615820
     54 H23        -4.9350    5.3710   -0.2140 hn        1 MOL      0.273418
     55 H24        -3.6450    3.1610   -0.7620 h1        1 MOL     -0.037136
     56 H25        -4.6280    2.6180    0.6850 h1        1 MOL     -0.037136
     57 N5         -2.3190    3.4580    1.9340 n         1 MOL     -0.153265
     58 C19        -2.4680    2.0970    2.3810 c3        1 MOL     -0.283089
     59 C20        -2.4150    0.9980    1.2620 c         1 MOL      0.437365
     60 O10        -3.4250    0.3440    1.0360 o         1 MOL     -0.601838
     61 C21        -3.6520    1.9780    3.3870 c3        1 MOL     -0.414957
     62 C22        -3.7980    3.0410    4.4110 c         1 MOL      0.735197
     63 O11        -4.8920    3.5850    4.6020 o         1 MOL     -0.708715
     64 O12        -2.7930    3.3260    5.0600 o         1 MOL     -0.708715
     65 H26        -1.6060    4.0870    2.2810 hn        1 MOL      0.236399
     66 H27        -1.6220    1.8720    3.0270 h1        1 MOL      0.133575
     67 H28        -3.5240    1.0080    3.8570 hc        1 MOL      0.144163
     68 H29        -4.6240    1.9440    2.8880 hc        1 MOL      0.144163
     69 N6         -1.3040    0.6920    0.6540 n         1 MOL     -0.253239
     70 C23         0.0530    1.2260    0.8940 c3        1 MOL     -0.039771
     71 C24         0.5600    2.2900   -0.0880 c         1 MOL      0.615017
     72 O13        -0.0120    2.5340   -1.1380 o         1 MOL     -0.603778
     73 H30        -1.4430   -0.0420   -0.0240 hn        1 MOL      0.262273
     74 H31         0.8510    0.4870    0.8220 h1        1 MOL      0.082232
     75 H32         0.2680    1.4840    1.9310 h1        1 MOL      0.082232
     76 N7          1.7480    2.9100    0.2070 n         1 MOL     -0.594242
     77 C25         2.2390    4.0310   -0.5300 c3        1 MOL     -0.045416
     78 C26         2.8820    3.6790   -1.9540 c         1 MOL      0.399533
     79 O14         3.5650    4.4670   -2.5310 o         1 MOL     -0.524138
     80 C27         3.2780    4.8720    0.2920 c3        1 MOL      0.206304
     81 C28         3.3620    6.4460    0.1300 c3        1 MOL     -0.541244
     82 C29         2.0990    7.2610    0.4730 c         1 MOL      0.765622
     83 N8          1.9360    8.4460   -0.1090 n         1 MOL     -0.872819
     84 O15         1.1960    6.8160    1.1430 o         1 MOL     -0.511727
     85 H33         2.3220    2.4920    0.9270 hn        1 MOL      0.306980
     86 H34         1.4230    4.6770   -0.8500 h1        1 MOL      0.200132
     87 H35         4.2240    4.4220   -0.0150 hc        1 MOL      0.030456
     88 H36         3.1410    4.7200    1.3580 hc        1 MOL      0.030456
     89 H37         3.5620    6.5390   -0.9410 hc        1 MOL      0.117887
     90 H38         4.2670    6.8240    0.6160 hc        1 MOL      0.117887
     91 H39         2.7140    8.9330   -0.5290 hn        1 MOL      0.372740
     92 H40         1.0320    8.8680   -0.2310 hn        1 MOL      0.372740
     93 N9          2.5790    2.5440   -2.5530 n         1 MOL     -0.056153
     94 C30         3.1300    2.0240   -3.7720 c3        1 MOL     -0.167743
     95 C31         4.6350    1.5040   -3.6410 c         1 MOL      0.476308
     96 O16         5.3840    1.4330   -4.6510 o         1 MOL     -0.555204
     97 C32         2.2030    1.0340   -4.5010 c3        1 MOL      0.131450
     98 C33         0.9660    1.8170   -5.0120 c3        1 MOL     -0.145612
     99 C34         1.8260   -0.1170   -3.5120 c3        1 MOL     -0.145612
    100 H41         1.9380    1.8650   -2.1400 hn        1 MOL      0.081712
    101 H42         3.2800    2.8560   -4.4730 h1        1 MOL      0.104228
    102 H43         2.7680    0.6900   -5.3720 hc        1 MOL      0.011308
    103 H44         0.2750    1.1290   -5.5010 hc        1 MOL      0.041323
    104 H45         0.3950    2.1850   -4.1600 hc        1 MOL      0.041323
    105 H46         1.2140    2.6390   -5.6820 hc        1 MOL      0.041323
    106 H47         2.7230   -0.5000   -3.0260 hc        1 MOL      0.041323
    107 H48         1.1400    0.2320   -2.7450 hc        1 MOL      0.041323
    108 H49         1.3230   -0.9000   -4.0680 hc        1 MOL      0.041323
    109 N10         5.1480    1.2900   -2.4330 n         1 MOL     -0.341383
    110 C35         6.6020    1.2010   -2.1090 c3        1 MOL      0.127055
    111 C36         7.0200   -0.0570   -1.3410 c         1 MOL      0.388942
    112 O17         8.1240   -0.5910   -1.5420 o         1 MOL     -0.525014
    113 C37         6.9990    2.4910   -1.2900 c3        1 MOL     -0.044154
    114 C38         6.2630    2.6990    0.0550 c         1 MOL      0.515536
    115 N11         6.6500    3.7090    0.8070 n         1 MOL     -0.827465
    116 O18         5.2170    2.2090    0.3370 o         1 MOL     -0.461534
    117 H50         4.4600    1.3210   -1.6980 hn        1 MOL      0.253925
    118 H51         7.1940    1.3060   -3.0160 h1        1 MOL      0.078714
    119 H52         6.8750    3.3020   -1.9960 hc        1 MOL      0.034308
    120 H53         8.0610    2.5050   -1.0380 hc        1 MOL      0.034308
    121 H54         7.3950    4.2850    0.4400 hn        1 MOL      0.374746
    122 H55         6.1600    3.9270    1.6630 hn        1 MOL      0.374746
    123 N12         6.1210   -0.6160   -0.5310 n         1 MOL     -0.368338
    124 C39         6.4180   -1.7820    0.3540 c3        1 MOL      0.509721
    125 C40         5.1210   -2.5900    0.5160 c         1 MOL      0.067241
    126 O19         4.0280   -2.0200    0.3360 o         1 MOL     -0.385890
    127 C41         6.9030   -1.2670    1.7440 c3        1 MOL     -0.381306
    128 C42         8.1120   -0.3960    1.7080 ca        1 MOL     -0.006439
    129 C43         9.3340   -0.9890    1.3040 ca        1 MOL     -0.033637
    130 C44         8.1450    0.8640    2.2900 ca        1 MOL     -0.033637
    131 C45        10.5660   -0.3640    1.5150 ca        1 MOL     -0.331500
    132 C46         9.3360    1.4790    2.5430 ca        1 MOL     -0.331500
    133 C47        10.5530    0.9230    2.0940 ca        1 MOL      0.361014
    134 O20        11.7390    1.5560    2.2530 oh        1 MOL     -0.478085
    135 H56         5.1800   -0.2840   -0.4130 hn        1 MOL      0.176935
    136 H57         7.1380   -2.4700   -0.0940 h1        1 MOL     -0.043056
    137 H58         7.1110   -2.0930    2.4200 hc        1 MOL      0.158081
    138 H59         6.0750   -0.7240    2.2070 hc        1 MOL      0.158081
    139 H60         9.2480   -1.9550    0.8260 ha        1 MOL      0.107837
    140 H61         7.2020    1.2480    2.6580 ha        1 MOL      0.107837
    141 H62        11.4770   -0.8060    1.1150 ha        1 MOL      0.152378
    142 H63         9.3030    2.3820    3.1440 ha        1 MOL      0.152378
    143 H64        11.5680    2.4250    2.6300 ho        1 MOL      0.338699
    144 N13         5.1860   -3.8960    0.8790 n         1 MOL     -0.296112
    145 C48         4.2010   -4.8460    1.3440 c3        1 MOL      0.051118
    146 C49         2.8750   -5.0700    0.5970 c         1 MOL      0.531517
    147 O21         2.2530   -6.1350    0.8150 o         1 MOL     -0.558612
    148 C50         4.1090   -4.6950    2.8830 c3        1 MOL     -0.089152
    149 C51         3.3770   -3.3580    3.2630 c3        1 MOL     -0.270865
    150 C52         3.2380   -3.0670    4.7370 c         1 MOL      0.769818
    151 O22         4.0620   -3.4540    5.5700 o         1 MOL     -0.750894
    152 O23         2.4180   -2.1950    5.1090 o         1 MOL     -0.750894
    153 H65         6.1150   -4.2940    0.9500 hn        1 MOL      0.269951
    154 H66         4.6420   -5.8390    1.1820 h1        1 MOL      0.002083
    155 H67         5.1230   -4.6570    3.2650 hc        1 MOL      0.035030
    156 H68         3.4460   -5.4300    3.3440 hc        1 MOL      0.035030
    157 H69         2.4100   -3.5690    2.7980 hc        1 MOL      0.077586
    158 H70         3.8830   -2.4920    2.8160 hc        1 MOL      0.077586
    159 N14         2.4870   -4.2160   -0.3350 n         1 MOL     -0.429202
    160 C53         1.4190   -4.4990   -1.2960 c3        1 MOL      0.029481
    161 C54         1.7820   -5.3170   -2.5270 c         1 MOL      0.315831
    162 O24         0.9590   -5.7250   -3.3370 o         1 MOL     -0.496916
    163 C55         0.8040   -3.1790   -1.8710 c3        1 MOL      0.122367
    164 C56         0.4880   -2.0460   -0.8880 c3        1 MOL      0.161648
    165 C57        -0.5990   -2.4230    0.1220 c         1 MOL      0.489868
    166 O25        -0.2000   -2.9720    1.1590 o         1 MOL     -0.615417
    167 O26        -1.8100   -2.1470   -0.1190 o         1 MOL     -0.615417
    168 H71         3.1030   -3.4200   -0.3660 hn        1 MOL      0.327246
    169 H72         0.6000   -5.0860   -0.8890 h1        1 MOL      0.145021
    170 H73        -0.0890   -3.5550   -2.3640 hc        1 MOL     -0.035801
    171 H74         1.5340   -2.7290   -2.5440 hc        1 MOL     -0.035801
    172 H75         0.0650   -1.2700   -1.5260 hc        1 MOL     -0.067557
    173 H76         1.3840   -1.6710   -0.4040 hc        1 MOL     -0.067557
    174 N15         3.0710   -5.6370   -2.7300 n         1 MOL     -0.190016
    175 C58         3.4860   -6.5240   -3.8680 c3        1 MOL     -0.097974
    176 H77         2.6310   -6.7030   -4.5190 h1        1 MOL      0.062792
    177 H78         4.2800   -6.0390   -4.4360 h1        1 MOL      0.062792
    178 H79         3.8480   -7.4750   -3.4750 h1        1 MOL      0.062792
    179 H80         3.8080   -5.2410   -2.1600 hn        1 MOL      0.165666
    180 Ca1        -3.9770   -2.2210    1.4360 Ca        1 MOL      1.766506
    181 O27        -2.1400   -1.2480    3.0500 oh        1 MOL     -0.832231
    182 H81        -2.2060   -0.7830    3.8900 ho        1 MOL      0.411361
    183 H82        -1.2290   -1.1380    2.7880 ho        1 MOL      0.411361
    184 O28        -5.6320   -0.7640    2.8770 oh        1 MOL     -0.832231
    185 H83        -6.1710   -0.1600    2.3680 ho        1 MOL      0.411361
    186 H84        -6.2310   -1.1420    3.5290 ho        1 MOL      0.411361
    187 O29        -2.8500   -4.7040    1.5550 oh        1 MOL     -0.832231
    188 H85        -2.0390   -4.9050    2.0050 ho        1 MOL      0.411361
    189 H86        -3.0210   -5.4680    1.0040 ho        1 MOL      0.411361
    190 O30        -4.0440   -3.1520    4.1170 oh        1 MOL     -0.832231
    191 H87        -3.6480   -3.8800    4.6110 ho        1 MOL      0.411361
    192 H88        -3.8060   -2.3740    4.6130 ho        1 MOL      0.411361
@<TRIPOS>BOND
     1    1    2 1   
     2    1    4 1   
     3    1    5 1   
     4    1    6 1   
     5    2    3 2   
     6    2    7 1   
     7    7    8 1   
     8    7   15 1   
     9    8    9 1   
    10    8   11 1   
    11    8   16 1   
    12    9   10 2   
    13    9   19 1   
    14   11   12 1   
    15   11   17 1   
    16   11   18 1   
    17   12   13 1   
    18   12   14 1   
    19   19   20 1   
    20   19   27 1   
    21   20   21 1   
    22   20   23 1   
    23   20   28 1   
    24   21   22 2   
    25   21   38 1   
    26   23   24 1   
    27   23   25 1   
    28   23   29 1   
    29   24   26 1   
    30   24   30 1   
    31   24   31 1   
    32   25   32 1   
    33   25   33 1   
    34   25   34 1   
    35   26   35 1   
    36   26   36 1   
    37   26   37 1   
    38   38   39 1   
    39   38   46 1   
    40   39   40 1   
    41   39   42 1   
    42   39   47 1   
    43   40   41 2   
    44   40   50 1   
    45   42   43 1   
    46   42   48 1   
    47   42   49 1   
    48   43   44 1   
    49   43   45 1   
    50   50   51 1   
    51   50   54 1   
    52   51   52 1   
    53   51   55 1   
    54   51   56 1   
    55   52   53 2   
    56   52   57 1   
    57   57   58 1   
    58   57   65 1   
    59   58   59 1   
    60   58   61 1   
    61   58   66 1   
    62   59   60 2   
    63   59   69 1   
    64   61   62 1   
    65   61   67 1   
    66   61   68 1   
    67   62   63 1   
    68   62   64 1   
    69   69   70 1   
    70   69   73 1   
    71   70   71 1   
    72   70   74 1   
    73   70   75 1   
    74   71   72 2   
    75   71   76 1   
    76   76   77 1   
    77   76   85 1   
    78   77   78 1   
    79   77   80 1   
    80   77   86 1   
    81   78   79 2   
    82   78   93 1   
    83   80   81 1   
    84   80   87 1   
    85   80   88 1   
    86   81   82 1   
    87   81   89 1   
    88   81   90 1   
    89   82   83 1   
    90   82   84 2   
    91   83   91 1   
    92   83   92 1   
    93   93   94 1   
    94   93  100 1   
    95   94   95 1   
    96   94   97 1   
    97   94  101 1   
    98   95   96 2   
    99   95  109 1   
   100   97   98 1   
   101   97   99 1   
   102   97  102 1   
   103   98  103 1   
   104   98  104 1   
   105   98  105 1   
   106   99  106 1   
   107   99  107 1   
   108   99  108 1   
   109  109  110 1   
   110  109  117 1   
   111  110  111 1   
   112  110  113 1   
   113  110  118 1   
   114  111  112 2   
   115  111  123 1   
   116  113  114 1   
   117  113  119 1   
   118  113  120 1   
   119  114  115 1   
   120  114  116 2   
   121  115  121 1   
   122  115  122 1   
   123  123  124 1   
   124  123  135 1   
   125  124  125 1   
   126  124  127 1   
   127  124  136 1   
   128  125  126 2   
   129  125  144 1   
   130  127  128 1   
   131  127  137 1   
   132  127  138 1   
   133  128  129 ar  
   134  128  130 ar  
   135  129  131 ar  
   136  129  139 1   
   137  130  132 ar  
   138  130  140 1   
   139  131  133 ar  
   140  131  141 1   
   141  132  133 ar  
   142  132  142 1   
   143  133  134 1   
   144  134  143 1   
   145  144  145 1   
   146  144  153 1   
   147  145  146 1   
   148  145  148 1   
   149  145  154 1   
   150  146  147 2   
   151  146  159 1   
   152  148  149 1   
   153  148  155 1   
   154  148  156 1   
   155  149  150 1   
   156  149  157 1   
   157  149  158 1   
   158  150  151 1   
   159  150  152 1   
   160  159  160 1   
   161  159  168 1   
   162  160  161 1   
   163  160  163 1   
   164  160  169 1   
   165  161  162 2   
   166  161  174 1   
   167  163  164 1   
   168  163  170 1   
   169  163  171 1   
   170  164  165 1   
   171  164  172 1   
   172  164  173 1   
   173  165  166 1   
   174  165  167 1   
   175  174  175 1   
   176  174  179 1   
   177  175  176 1   
   178  175  177 1   
   179  175  178 1   
   180  181  182 1   
   181  181  183 1   
   182  184  185 1   
   183  184  186 1   
   184  187  188 1   
   185  187  189 1   
   186  190  191 1   
   187  190  192 1   
@<TRIPOS>SUBSTRUCTURE
     1 MOL         1 TEMP              0 ****  ****    0 ROOT
