@<TRIPOS>MOLECULE
MOL
  195   189     1     0     0
SMALL
resp


@<TRIPOS>ATOM
      1 C1         13.2120    3.0760   -3.5240 c3        1 MOL     -0.418111
      2 C2         12.4220    2.0600   -2.7220 c         1 MOL      0.707758
      3 O1         11.8790    1.0540   -3.2110 o         1 MOL     -0.641914
      4 H1         12.7420    4.0550   -3.4320 hc        1 MOL      0.113624
      5 H2         14.2320    3.1260   -3.1450 hc        1 MOL      0.113624
      6 H3         13.2280    2.7790   -4.5730 hc        1 MOL      0.113624
      7 N1         12.2070    2.2560   -1.4490 n         1 MOL     -0.381081
      8 C3         11.4950    1.4210   -0.4900 c3        1 MOL     -0.148581
      9 C4          9.9590    1.2790   -0.7350 c         1 MOL      0.641680
     10 O2          9.1310    2.2410   -0.6570 o         1 MOL     -0.691154
     11 C5         11.6520    1.9420    0.9680 c3        1 MOL     -0.070205
     12 C6         11.5330    3.5160    1.1630 c         1 MOL      0.496540
     13 O3         10.4610    4.0350    1.6810 o         1 MOL     -0.603665
     14 O4         12.4980    4.2540    0.8080 o         1 MOL     -0.603665
     15 H4         12.7350    3.0230   -1.0480 hn        1 MOL      0.226686
     16 H5         11.8030    0.3810   -0.4800 h1        1 MOL      0.096826
     17 H6         12.5280    1.5130    1.4650 hc        1 MOL      0.064393
     18 H7         10.7880    1.4610    1.4280 hc        1 MOL      0.064393
     19 N2          9.5280    0.0320   -0.9300 n         1 MOL     -0.283246
     20 C7          8.0760   -0.3850   -1.0760 c3        1 MOL     -0.159270
     21 C8          7.4760   -0.5860    0.2700 c         1 MOL      0.672581
     22 O5          8.1240   -1.2190    1.1130 o         1 MOL     -0.545711
     23 C9          8.0570   -1.6120   -2.0040 c3        1 MOL     -0.336115
     24 C10         6.6820   -2.1040   -2.4800 c3        1 MOL      0.433690
     25 C11         6.7360   -3.4010   -3.3790 c3        1 MOL     -0.319194
     26 C12         5.2930   -3.8640   -3.6880 c3        1 MOL      0.394172
     27 N3          5.2440   -5.1960   -4.3300 n4        1 MOL     -0.667938
     28 H8         10.1610   -0.7340   -1.0820 hn        1 MOL      0.259952
     29 H9          7.5770    0.5040   -1.4560 h1        1 MOL      0.134759
     30 H10         8.5620   -2.4570   -1.5390 hc        1 MOL      0.119343
     31 H11         8.6430   -1.4750   -2.9130 hc        1 MOL      0.119343
     32 H12         6.2150   -1.2960   -3.0440 hc        1 MOL     -0.079883
     33 H13         5.9590   -2.3190   -1.6890 hc        1 MOL     -0.079883
     34 H14         7.2000   -4.1820   -2.7720 hc        1 MOL      0.056456
     35 H15         7.1560   -3.1670   -4.3520 hc        1 MOL      0.056456
     36 H16         4.8820   -3.1450   -4.3980 hx        1 MOL      0.043814
     37 H17         4.8280   -3.8070   -2.7020 hx        1 MOL      0.043814
     38 H18         4.2970   -5.5340   -4.2650 hn        1 MOL      0.394326
     39 H19         5.5580   -5.1550   -5.2900 hn        1 MOL      0.394326
     40 H20         5.8440   -5.8610   -3.8610 hn        1 MOL      0.394326
     41 N4          6.2540   -0.0900    0.4990 n         1 MOL     -0.496585
     42 C13         5.4410   -0.1440    1.6990 c3        1 MOL      0.167281
     43 C14         3.9790    0.3370    1.4450 c         1 MOL      0.501077
     44 O6          3.7010    1.0740    0.5590 o         1 MOL     -0.534898
     45 C15         6.1350    0.7740    2.6570 c3        1 MOL     -0.455670
     46 C16         6.7010    2.0690    2.0600 c         1 MOL      0.959084
     47 O7          7.9080    2.1890    1.9700 o         1 MOL     -0.804855
     48 O8          6.0310    3.0480    1.7160 o         1 MOL     -0.804855
     49 H21         5.9130    0.5160   -0.2280 hn        1 MOL      0.234243
     50 H22         5.4850   -1.1470    2.1380 h1        1 MOL      0.082336
     51 H23         7.0050    0.2110    3.0030 hc        1 MOL      0.119049
     52 H24         5.4600    0.9100    3.5020 hc        1 MOL      0.119049
     53 N5          2.9970   -0.0450    2.2570 n         1 MOL     -0.340187
     54 C17         3.1210   -1.0190    3.4110 c3        1 MOL     -0.088087
     55 C18         3.1340   -2.4990    3.0640 c         1 MOL      0.581037
     56 O9          3.5100   -2.9870    1.9990 o         1 MOL     -0.540190
     57 H25         2.1840    0.5280    2.4350 hn        1 MOL      0.308167
     58 H26         2.3820   -0.8000    4.1720 h1        1 MOL      0.063612
     59 H27         4.0640   -0.7430    3.8950 h1        1 MOL      0.063612
     60 N6          2.7390   -3.3670    4.0350 n         1 MOL     -0.426604
     61 C19         2.6000   -4.7960    3.8270 c3        1 MOL     -0.037539
     62 C20         1.6610   -5.0970    2.5670 c         1 MOL      0.568979
     63 O10         0.4740   -4.6640    2.5660 o         1 MOL     -0.534644
     64 C21         2.1100   -5.5300    5.0380 c3        1 MOL     -0.228832
     65 C22         2.0140   -7.0660    4.8970 c         1 MOL      0.732836
     66 O11         3.0630   -7.6220    4.4920 o         1 MOL     -0.712635
     67 O12         1.0340   -7.6800    5.3530 o         1 MOL     -0.712635
     68 H28         2.7080   -3.0280    4.9850 hn        1 MOL      0.276652
     69 H29         3.5810   -5.2000    3.6100 h1        1 MOL      0.050895
     70 H30         1.1500   -5.1500    5.3980 hc        1 MOL      0.064300
     71 H31         2.8000   -5.2190    5.8340 hc        1 MOL      0.064300
     72 N7          2.1510   -5.8980    1.6470 n         1 MOL     -0.347734
     73 C23         1.4780   -6.4420    0.4160 c3        1 MOL     -0.089922
     74 C24         1.1440   -5.3950   -0.7040 c         1 MOL      0.513433
     75 O13         0.8480   -5.8740   -1.8550 o         1 MOL     -0.605018
     76 H32         3.1500   -6.0260    1.7410 hn        1 MOL      0.256130
     77 H33         0.5570   -6.9990    0.6000 h1        1 MOL      0.107581
     78 H34         2.1810   -7.1270   -0.0450 h1        1 MOL      0.107581
     79 N8          1.1920   -4.1000   -0.4670 n         1 MOL     -0.246077
     80 C25         0.7950   -3.0670   -1.4510 c3        1 MOL      0.025827
     81 C26         0.0450   -1.9220   -0.8280 c         1 MOL      0.511287
     82 O14         0.3670   -1.6080    0.3240 o         1 MOL     -0.460977
     83 C27         1.9180   -2.5600   -2.3320 c3        1 MOL      0.199695
     84 C28         3.0400   -1.8340   -1.6060 c3        1 MOL     -0.110700
     85 O15         2.3900   -3.6270   -3.1790 oh        1 MOL     -0.726238
     86 H35         1.3480   -3.8100    0.4890 hn        1 MOL      0.201946
     87 H36         0.0270   -3.4600   -2.1240 h1        1 MOL      0.043246
     88 H37         1.4650   -1.9040   -3.0780 h1        1 MOL      0.021852
     89 H38         1.5920   -3.9730   -3.5730 ho        1 MOL      0.426905
     90 H39         3.2230   -2.2320   -0.6070 hc        1 MOL      0.035466
     91 H40         3.9360   -1.8320   -2.2350 hc        1 MOL      0.035466
     92 H41         2.7060   -0.8320   -1.3210 hc        1 MOL      0.035466
     93 N9         -0.8460   -1.1580   -1.5240 n         1 MOL     -0.434178
     94 C29        -1.3720    0.1030   -1.1810 c3        1 MOL      0.018209
     95 C30        -2.8300    0.1050   -0.5520 c         1 MOL      0.685484
     96 O16        -3.0730    0.7950    0.4550 o         1 MOL     -0.558670
     97 C31        -1.2610    1.0090   -2.4000 c3        1 MOL      0.076663
     98 C32         0.2070    1.2690   -2.8840 c3        1 MOL      0.127920
     99 C33        -1.8700    2.4550   -2.0520 c3        1 MOL     -0.370696
    100 C34         0.2630    1.5190   -4.3860 c3        1 MOL     -0.370157
    101 H42        -0.8760   -1.3260   -2.5150 hn        1 MOL      0.221487
    102 H43        -0.8640    0.5230   -0.3160 h1        1 MOL      0.051455
    103 H44        -1.9730    0.6710   -3.1620 hc        1 MOL      0.025464
    104 H45         0.8800    0.4250   -2.7190 hc        1 MOL      0.016830
    105 H46         0.6730    2.0530   -2.2820 hc        1 MOL      0.016830
    106 H47        -1.4440    2.8750   -1.1400 hc        1 MOL      0.105573
    107 H48        -1.6830    2.9650   -2.9900 hc        1 MOL      0.105573
    108 H49        -2.9570    2.4190   -1.9260 hc        1 MOL      0.105573
    109 H50        -0.0450    0.6100   -4.9090 hc        1 MOL      0.084788
    110 H51        -0.3720    2.3770   -4.6080 hc        1 MOL      0.084788
    111 H52         1.2990    1.7950   -4.5780 hc        1 MOL      0.084788
    112 N10        -3.7580   -0.8120   -0.9760 n         1 MOL     -0.536721
    113 C35        -5.1530   -0.9660   -0.3390 c3        1 MOL     -0.184699
    114 C36        -6.2190   -1.4520   -1.3670 c         1 MOL      0.810095
    115 O17        -5.9440   -2.0410   -2.3890 o         1 MOL     -0.557482
    116 C37        -5.1880   -1.7620    1.0190 c3        1 MOL      0.441109
    117 C38        -4.6520   -3.1790    0.6910 c3        1 MOL     -0.303335
    118 O18        -4.3650   -1.2470    2.0360 oh        1 MOL     -0.622500
    119 H53        -3.4760   -1.4060   -1.7480 hn        1 MOL      0.265543
    120 H54        -5.5330    0.0090   -0.0520 h1        1 MOL      0.088526
    121 H55        -6.2260   -1.8570    1.3430 h1        1 MOL     -0.002773
    122 H56        -3.7160   -0.6360    1.6830 ho        1 MOL      0.422983
    123 H57        -4.5440   -3.6790    1.6550 hc        1 MOL      0.076294
    124 H58        -5.3090   -3.7640    0.0380 hc        1 MOL      0.076294
    125 H59        -3.6770   -3.0890    0.2030 hc        1 MOL      0.076294
    126 N11        -7.4860   -1.1650   -1.1570 n         1 MOL     -0.766432
    127 C39        -8.4560   -1.4930   -2.2150 c3        1 MOL      0.111171
    128 C40        -9.5520   -0.3890   -2.4320 c         1 MOL      0.580598
    129 O19        -9.7150    0.1810   -3.5190 o         1 MOL     -0.565492
    130 C41        -9.1220   -2.8120   -1.9530 c3        1 MOL      0.560593
    131 C42        -9.7450   -3.4440   -3.2360 c3        1 MOL     -0.482894
    132 O20        -9.9720   -2.8970   -0.7950 oh        1 MOL     -0.761993
    133 H60        -7.7580   -0.6790   -0.3140 hn        1 MOL      0.339164
    134 H61        -8.0140   -1.5740   -3.2170 h1        1 MOL      0.058077
    135 H62        -8.2850   -3.4900   -1.7410 h1        1 MOL     -0.054059
    136 H63        -9.5810   -3.3330   -0.0340 ho        1 MOL      0.434395
    137 H64       -10.3090   -2.6490   -3.7130 hc        1 MOL      0.121745
    138 H65        -8.8770   -3.6490   -3.8670 hc        1 MOL      0.121745
    139 H66       -10.3520   -4.2870   -2.8960 hc        1 MOL      0.121745
    140 N12       -10.1430   -0.0140   -1.3050 n         1 MOL     -0.300463
    141 C43       -10.9630    1.2140   -1.1330 c3        1 MOL     -0.067944
    142 C44       -10.5810    1.8720    0.3000 c         1 MOL      0.552081
    143 O21       -10.1710    1.1560    1.1800 o         1 MOL     -0.483209
    144 C45       -12.4670    0.8540   -1.2940 c3        1 MOL     -0.162306
    145 C46       -12.9250   -0.4630   -0.6370 c3        1 MOL     -0.054086
    146 C47       -14.4110   -0.6160   -0.4080 c3        1 MOL      0.041702
    147 C48       -14.9100   -1.9790    0.0190 c3        1 MOL     -0.007136
    148 N13       -16.3450   -1.8610   -0.0610 n4        1 MOL     -0.210751
    149 H67        -9.9070   -0.5550   -0.4800 hn        1 MOL      0.192508
    150 H68       -10.7310    1.9720   -1.8800 h1        1 MOL      0.090874
    151 H69       -12.6230    0.7070   -2.3610 hc        1 MOL      0.062986
    152 H70       -13.1240    1.6150   -0.8890 hc        1 MOL      0.062986
    153 H71       -12.5150   -0.4340    0.3770 hc        1 MOL      0.068604
    154 H72       -12.5320   -1.2810   -1.2360 hc        1 MOL      0.068604
    155 H73       -14.8980   -0.3110   -1.3380 hc        1 MOL      0.007053
    156 H74       -14.7940    0.0670    0.3510 hc        1 MOL      0.007053
    157 H75       -14.5310   -2.0550    1.0410 hx        1 MOL      0.083167
    158 H76       -14.4410   -2.7030   -0.6500 hx        1 MOL      0.083167
    159 H77       -16.6620   -1.1550    0.5940 hn        1 MOL      0.236117
    160 H78       -16.5330   -1.5780   -1.0150 hn        1 MOL      0.236117
    161 H79       -16.7780   -2.7600    0.0760 hn        1 MOL      0.236117
    162 N14       -10.7670    3.2050    0.4640 n         1 MOL     -0.461856
    163 C49       -10.1580    3.9310    1.5990 c3        1 MOL      0.081624
    164 C50        -8.5770    3.9050    1.6330 c         1 MOL      0.442410
    165 O22        -8.0230    3.5210    2.6330 o         1 MOL     -0.523914
    166 C51       -10.7510    5.3600    1.6590 c3        1 MOL      0.175450
    167 C52       -12.2300    5.3870    2.0350 c3        1 MOL     -0.247583
    168 C53       -12.7850    6.7590    1.8370 c         1 MOL      0.640724
    169 O23       -13.2660    7.0980    0.7180 o         1 MOL     -0.628695
    170 O24       -12.5730    7.7260    2.6470 o         1 MOL     -0.628695
    171 H80       -11.2380    3.7320   -0.2560 hn        1 MOL      0.301550
    172 H81       -10.4530    3.4800    2.5520 h1        1 MOL      0.067321
    173 H82       -10.7000    5.8140    0.6750 hc        1 MOL      0.006250
    174 H83       -10.1550    5.9590    2.3440 hc        1 MOL      0.006250
    175 H84       -12.4420    4.9940    3.0270 hc        1 MOL      0.025335
    176 H85       -12.7450    4.8370    1.2480 hc        1 MOL      0.025335
    177 N15        -7.8010    4.2290    0.5970 n         1 MOL     -0.416773
    178 C54        -8.1810    5.0010   -0.6240 c3        1 MOL     -0.064041
    179 H86        -7.4580    5.8010   -0.7880 h1        1 MOL      0.059343
    180 H87        -8.1890    4.3370   -1.4880 h1        1 MOL      0.059343
    181 H88        -9.1730    5.4320   -0.4880 h1        1 MOL      0.059343
    182 H89        -6.8210    4.2520    0.8350 hn        1 MOL      0.314888
    183 Ca1         8.1460    4.3610    0.6290 Ca        1 MOL      1.736049
    184 O25         9.1780    5.5250   -1.3820 oh        1 MOL     -0.840210
    185 H90         9.4230    5.2410   -2.2610 ho        1 MOL      0.417729
    186 H91         9.7870    6.2260   -1.1690 ho        1 MOL      0.417729
    187 O26         6.7780    3.5010   -1.6470 oh        1 MOL     -0.840210
    188 H92         6.7330    2.5950   -1.9670 ho        1 MOL      0.417729
    189 H93         6.5850    4.0350   -2.4170 ho        1 MOL      0.417729
    190 O27         9.0310    7.2170    1.0220 oh        1 MOL     -0.840210
    191 H94         8.0810    7.2790    0.9110 ho        1 MOL      0.417729
    192 H95         9.3780    7.9140    0.4580 ho        1 MOL      0.417729
    193 O28         7.6790    5.3730    2.9740 oh        1 MOL     -0.840210
    194 H96         7.0970    5.9570    3.4620 ho        1 MOL      0.417729
    195 H97         8.4740    5.3240    3.5140 ho        1 MOL      0.417729
@<TRIPOS>BOND
     1    1    2 1   
     2    1    4 1   
     3    1    5 1   
     4    1    6 1   
     5    2    3 2   
     6    2    7 1   
     7    7    8 1   
     8    7   15 1   
     9    8    9 1   
    10    8   11 1   
    11    8   16 1   
    12    9   10 2   
    13    9   19 1   
    14   11   12 1   
    15   11   17 1   
    16   11   18 1   
    17   12   13 1   
    18   12   14 1   
    19   19   20 1   
    20   19   28 1   
    21   20   21 1   
    22   20   23 1   
    23   20   29 1   
    24   21   22 2   
    25   21   41 1   
    26   23   24 1   
    27   23   30 1   
    28   23   31 1   
    29   24   25 1   
    30   24   32 1   
    31   24   33 1   
    32   25   26 1   
    33   25   34 1   
    34   25   35 1   
    35   26   27 1   
    36   26   36 1   
    37   26   37 1   
    38   27   38 1   
    39   27   39 1   
    40   27   40 1   
    41   41   42 1   
    42   41   49 1   
    43   42   43 1   
    44   42   45 1   
    45   42   50 1   
    46   43   44 2   
    47   43   53 1   
    48   45   46 1   
    49   45   51 1   
    50   45   52 1   
    51   46   47 1   
    52   46   48 1   
    53   53   54 1   
    54   53   57 1   
    55   54   55 1   
    56   54   58 1   
    57   54   59 1   
    58   55   56 2   
    59   55   60 1   
    60   60   61 1   
    61   60   68 1   
    62   61   62 1   
    63   61   64 1   
    64   61   69 1   
    65   62   63 2   
    66   62   72 1   
    67   64   65 1   
    68   64   70 1   
    69   64   71 1   
    70   65   66 1   
    71   65   67 1   
    72   72   73 1   
    73   72   76 1   
    74   73   74 1   
    75   73   77 1   
    76   73   78 1   
    77   74   75 2   
    78   74   79 1   
    79   79   80 1   
    80   79   86 1   
    81   80   81 1   
    82   80   83 1   
    83   80   87 1   
    84   81   82 2   
    85   81   93 1   
    86   83   84 1   
    87   83   85 1   
    88   83   88 1   
    89   84   90 1   
    90   84   91 1   
    91   84   92 1   
    92   85   89 1   
    93   93   94 1   
    94   93  101 1   
    95   94   95 1   
    96   94   97 1   
    97   94  102 1   
    98   95   96 2   
    99   95  112 1   
   100   97   98 1   
   101   97   99 1   
   102   97  103 1   
   103   98  100 1   
   104   98  104 1   
   105   98  105 1   
   106   99  106 1   
   107   99  107 1   
   108   99  108 1   
   109  100  109 1   
   110  100  110 1   
   111  100  111 1   
   112  112  113 1   
   113  112  119 1   
   114  113  114 1   
   115  113  116 1   
   116  113  120 1   
   117  114  115 2   
   118  114  126 1   
   119  116  117 1   
   120  116  118 1   
   121  116  121 1   
   122  117  123 1   
   123  117  124 1   
   124  117  125 1   
   125  118  122 1   
   126  126  127 1   
   127  126  133 1   
   128  127  128 1   
   129  127  130 1   
   130  127  134 1   
   131  128  129 2   
   132  128  140 1   
   133  130  131 1   
   134  130  132 1   
   135  130  135 1   
   136  131  137 1   
   137  131  138 1   
   138  131  139 1   
   139  132  136 1   
   140  140  141 1   
   141  140  149 1   
   142  141  142 1   
   143  141  144 1   
   144  141  150 1   
   145  142  143 2   
   146  142  162 1   
   147  144  145 1   
   148  144  151 1   
   149  144  152 1   
   150  145  146 1   
   151  145  153 1   
   152  145  154 1   
   153  146  147 1   
   154  146  155 1   
   155  146  156 1   
   156  147  148 1   
   157  147  157 1   
   158  147  158 1   
   159  148  159 1   
   160  148  160 1   
   161  148  161 1   
   162  162  163 1   
   163  162  171 1   
   164  163  164 1   
   165  163  166 1   
   166  163  172 1   
   167  164  165 2   
   168  164  177 1   
   169  166  167 1   
   170  166  173 1   
   171  166  174 1   
   172  167  168 1   
   173  167  175 1   
   174  167  176 1   
   175  168  169 1   
   176  168  170 1   
   177  177  178 1   
   178  177  182 1   
   179  178  179 1   
   180  178  180 1   
   181  178  181 1   
   182  184  185 1   
   183  184  186 1   
   184  187  188 1   
   185  187  189 1   
   186  190  191 1   
   187  190  192 1   
   188  193  194 1   
   189  193  195 1   
@<TRIPOS>SUBSTRUCTURE
     1 MOL         1 TEMP              0 ****  ****    0 ROOT
