@<TRIPOS>MOLECULE
MOL
  192   187     1     0     0
SMALL
resp


@<TRIPOS>ATOM
      1 C1          4.2720   -1.7460   -3.0260 c3        1 MOL     -0.586089
      2 C2          3.4950   -2.2890   -1.7970 c         1 MOL      0.714296
      3 O1          2.5770   -1.6420   -1.3210 o         1 MOL     -0.485008
      4 H1          4.3390   -0.6600   -2.9600 hc        1 MOL      0.162591
      5 H2          5.2750   -2.1710   -3.0400 hc        1 MOL      0.162591
      6 H3          3.7460   -2.0230   -3.9400 hc        1 MOL      0.162591
      7 N1          3.9090   -3.4540   -1.2360 n         1 MOL     -0.432091
      8 C3          3.1820   -4.2080   -0.2220 c3        1 MOL     -0.203255
      9 C4          1.6890   -4.3720   -0.4540 c         1 MOL      0.778151
     10 O2          0.9610   -4.4270    0.5010 o         1 MOL     -0.551354
     11 C5          3.4920   -3.6140    1.1580 c3        1 MOL     -0.207188
     12 C6          5.0330   -3.6770    1.3310 c         1 MOL      0.875487
     13 O3          5.5990   -2.8710    2.1170 o         1 MOL     -0.799007
     14 O4          5.6770   -4.6370    0.8450 o         1 MOL     -0.799007
     15 H4          4.8790   -3.7180   -1.3770 hn        1 MOL      0.235733
     16 H5          3.5660   -5.2200   -0.2970 h1        1 MOL      0.122106
     17 H6          3.1320   -4.1600    2.0250 hc        1 MOL      0.087302
     18 H7          3.1790   -2.5710    1.0800 hc        1 MOL      0.087302
     19 N2          1.1790   -4.2920   -1.6580 n         1 MOL     -0.653451
     20 C7         -0.2150   -4.6340   -2.0480 c3        1 MOL     -0.035804
     21 C8         -0.6710   -6.0890   -1.6640 c         1 MOL      0.577805
     22 O5          0.0730   -7.0740   -1.6700 o         1 MOL     -0.593044
     23 C9         -0.3480   -4.5040   -3.5840 c3        1 MOL      0.090211
     24 C10         0.6800   -5.1620   -4.5900 c3        1 MOL      0.153431
     25 C11        -0.3700   -3.0230   -3.8670 c3        1 MOL      0.017964
     26 C12         0.0880   -5.2670   -5.9950 c3        1 MOL     -0.258349
     27 H8          1.7650   -3.9460   -2.4090 hn        1 MOL      0.276023
     28 H9         -0.8160   -3.8470   -1.6120 h1        1 MOL      0.239114
     29 H10        -1.3730   -4.7780   -3.8470 hc        1 MOL     -0.007834
     30 H11         0.8900   -6.1570   -4.1990 hc        1 MOL     -0.045167
     31 H12         1.5680   -4.5300   -4.5960 hc        1 MOL     -0.045167
     32 H13        -1.2380   -2.6220   -3.3410 hc        1 MOL     -0.004842
     33 H14         0.5440   -2.5180   -3.5670 hc        1 MOL     -0.004842
     34 H15        -0.5710   -2.8140   -4.9100 hc        1 MOL     -0.004842
     35 H16        -0.3420   -4.3280   -6.3570 hc        1 MOL      0.053383
     36 H17         0.7860   -5.7140   -6.7000 hc        1 MOL      0.053383
     37 H18        -0.7010   -6.0120   -6.1090 hc        1 MOL      0.053383
     38 N3         -1.9140   -6.2120   -1.3210 n         1 MOL     -0.426702
     39 C13        -2.9440   -5.1940   -0.8820 c3        1 MOL     -0.085521
     40 C14        -3.7320   -5.7940    0.2440 c         1 MOL      0.791485
     41 O6         -3.8550   -6.9900    0.3400 o         1 MOL     -0.611263
     42 C15        -3.9050   -4.8200   -1.9700 c3        1 MOL     -0.399393
     43 C16        -4.8410   -3.6930   -1.5760 c         1 MOL      0.735881
     44 O7         -6.0240   -3.7860   -1.8900 o         1 MOL     -0.678718
     45 O8         -4.3520   -2.7350   -0.9100 o         1 MOL     -0.678718
     46 H19        -2.1180   -7.1100   -0.9010 hn        1 MOL      0.268015
     47 H20        -2.4270   -4.3040   -0.5350 h1        1 MOL     -0.016225
     48 H21        -4.3210   -5.7400   -2.3980 hc        1 MOL      0.103929
     49 H22        -3.3110   -4.3980   -2.7860 hc        1 MOL      0.103929
     50 N4         -4.1470   -5.0260    1.1960 n         1 MOL     -0.385834
     51 C17        -4.7980   -5.3510    2.4960 c3        1 MOL     -0.435460
     52 C18        -5.6480   -4.2310    2.9990 c         1 MOL      0.758751
     53 O9         -6.0830   -4.3420    4.1280 o         1 MOL     -0.611469
     54 H23        -4.0070   -4.0280    1.1490 hn        1 MOL      0.350703
     55 H24        -3.9560   -5.3100    3.1890 h1        1 MOL      0.172899
     56 H25        -5.3770   -6.2690    2.4070 h1        1 MOL      0.172899
     57 N5         -5.7930   -3.1240    2.2490 n         1 MOL     -0.485595
     58 C19        -6.6530   -1.9790    2.5910 c3        1 MOL      0.104881
     59 C20        -7.5840   -1.5640    1.5080 c         1 MOL      0.409222
     60 O10        -8.7020   -1.2180    1.8290 o         1 MOL     -0.553118
     61 C21        -5.8460   -0.8450    3.2100 c3        1 MOL     -0.059992
     62 C22        -4.5410   -0.5880    2.4580 c         1 MOL      0.675930
     63 O11        -3.5360   -1.0520    2.9790 o         1 MOL     -0.683187
     64 O12        -4.6770   -0.0250    1.3670 o         1 MOL     -0.683187
     65 H26        -5.2490   -3.0560    1.3990 hn        1 MOL      0.205779
     66 H27        -7.2990   -2.3680    3.3860 h1        1 MOL      0.035341
     67 H28        -5.5890   -1.0980    4.2350 hc        1 MOL     -0.012284
     68 H29        -6.4300    0.0730    3.1100 hc        1 MOL     -0.012284
     69 N6         -7.0840   -1.5540    0.2640 n         1 MOL     -0.197767
     70 C23        -7.7570   -0.7960   -0.7260 c3        1 MOL     -0.263166
     71 C24        -7.7600    0.7310   -0.5890 c         1 MOL      0.628052
     72 O13        -8.4750    1.3130   -1.3920 o         1 MOL     -0.642587
     73 H30        -6.1500   -1.9260    0.1350 hn        1 MOL      0.227511
     74 H31        -8.8200   -1.0170   -0.7440 h1        1 MOL      0.120802
     75 H32        -7.2880   -1.0920   -1.6680 h1        1 MOL      0.120802
     76 N7         -6.9830    1.2540    0.3560 n         1 MOL     -0.247750
     77 C25        -6.8700    2.6680    0.7470 c3        1 MOL      0.208119
     78 C26        -6.5170    3.6470   -0.3880 c         1 MOL      0.316307
     79 O14        -6.6500    4.8190   -0.2600 o         1 MOL     -0.507325
     80 C27        -8.0090    3.1090    1.7150 c3        1 MOL     -0.088540
     81 C28        -7.9760    2.2490    2.9740 c3        1 MOL      0.035867
     82 C29        -8.8640    2.7820    4.1400 c         1 MOL      0.554156
     83 N8         -9.5520    1.9420    4.8910 n         1 MOL     -0.743735
     84 O15        -8.8520    3.9870    4.5150 o         1 MOL     -0.569869
     85 H33        -6.4550    0.5750    0.8830 hn        1 MOL      0.161293
     86 H34        -5.9980    2.7140    1.4080 h1        1 MOL      0.078948
     87 H35        -9.0080    3.0700    1.2910 hc        1 MOL      0.017710
     88 H36        -7.6730    4.0650    2.1050 hc        1 MOL      0.017710
     89 H37        -7.0110    2.2950    3.4680 hc        1 MOL      0.002771
     90 H38        -8.3150    1.2390    2.7270 hc        1 MOL      0.002771
     91 H39        -9.6430    0.9790    4.5980 hn        1 MOL      0.340984
     92 H40       -10.1290    2.2370    5.6680 hn        1 MOL      0.340984
     93 N9         -5.9870    3.2350   -1.5480 n         1 MOL     -0.140362
     94 C30        -5.4130    3.9880   -2.6790 c3        1 MOL     -0.083175
     95 C31        -3.9080    3.8320   -2.8060 c         1 MOL      0.516554
     96 O16        -3.3540    4.5140   -3.6550 o         1 MOL     -0.576862
     97 C32        -6.1570    3.5980   -3.9280 c3        1 MOL      0.360813
     98 C33        -6.1060    2.0980   -4.2990 c3        1 MOL     -0.375669
     99 C34        -7.5860    4.0530   -3.8870 c3        1 MOL     -0.375669
    100 H41        -5.7860    2.2490   -1.5920 hn        1 MOL      0.148988
    101 H42        -5.5470    5.0510   -2.4750 h1        1 MOL      0.091918
    102 H43        -5.6740    4.1070   -4.7650 hc        1 MOL     -0.055598
    103 H44        -5.0610    1.7790   -4.4230 hc        1 MOL      0.082868
    104 H45        -6.5140    1.4290   -3.5510 hc        1 MOL      0.082868
    105 H46        -6.5860    1.8630   -5.2560 hc        1 MOL      0.082868
    106 H47        -7.9440    3.7430   -4.8660 hc        1 MOL      0.082868
    107 H48        -8.2190    3.4500   -3.2460 hc        1 MOL      0.082868
    108 H49        -7.5860    5.1390   -3.7330 hc        1 MOL      0.082868
    109 N10        -3.3160    2.8620   -2.1000 n         1 MOL     -0.387721
    110 C35        -1.8630    2.4550   -2.2310 c3        1 MOL      0.285818
    111 C36        -1.1400    2.8110   -0.9060 c         1 MOL      0.482315
    112 O17        -1.8010    2.9730    0.1350 o         1 MOL     -0.528399
    113 C37        -1.7740    0.9290   -2.5060 c3        1 MOL     -0.257524
    114 C38        -0.4200    0.2780   -2.4720 c         1 MOL      0.504407
    115 N11        -0.1550   -0.5650   -1.5340 n         1 MOL     -0.578856
    116 O18         0.4280    0.5310   -3.2760 o         1 MOL     -0.585230
    117 H50        -3.8950    2.4480   -1.3740 hn        1 MOL      0.174348
    118 H51        -1.4240    3.0340   -3.0490 h1        1 MOL      0.016551
    119 H52        -2.2570    0.7810   -3.4760 hc        1 MOL      0.101059
    120 H53        -2.3880    0.4130   -1.7740 hc        1 MOL      0.101059
    121 H54        -0.8720   -0.8740   -0.9020 hn        1 MOL      0.310954
    122 H55         0.7640   -0.9760   -1.4750 hn        1 MOL      0.310954
    123 N12         0.1540    2.8570   -0.9160 n         1 MOL     -0.498233
    124 C39         1.0200    3.2440    0.1830 c3        1 MOL      0.175632
    125 C40         2.3860    3.7590   -0.3440 c         1 MOL      0.493141
    126 O19         2.9120    3.2890   -1.3770 o         1 MOL     -0.549254
    127 C41         1.2250    1.9380    1.0320 c3        1 MOL     -0.157048
    128 C42         1.9430    2.0950    2.3430 ca        1 MOL      0.072512
    129 C43         3.3050    2.0100    2.4150 ca        1 MOL     -0.188084
    130 C44         1.2280    2.2300    3.5890 ca        1 MOL     -0.188084
    131 C45         3.9940    2.3440    3.6110 ca        1 MOL     -0.227863
    132 C46         1.8450    2.5670    4.8170 ca        1 MOL     -0.227863
    133 C47         3.3200    2.5780    4.8220 ca        1 MOL      0.304292
    134 O20         4.0700    2.7570    5.9470 oh        1 MOL     -0.511750
    135 H56         0.6140    2.4080   -1.6990 hn        1 MOL      0.282277
    136 H57         0.5350    4.0300    0.7540 h1        1 MOL      0.059956
    137 H58         1.8340    1.2260    0.4730 hc        1 MOL      0.105583
    138 H59         0.2980    1.4260    1.2780 hc        1 MOL      0.105583
    139 H60         3.9420    1.7220    1.6000 ha        1 MOL      0.148067
    140 H61         0.1590    2.2670    3.4840 ha        1 MOL      0.148067
    141 H62         5.0650    2.2150    3.5970 ha        1 MOL      0.146754
    142 H63         1.2890    2.7880    5.7090 ha        1 MOL      0.146754
    143 H64         4.9990    2.5740    5.7360 ho        1 MOL      0.360636
    144 N13         2.9830    4.7130    0.4110 n         1 MOL     -0.570762
    145 C48         4.3550    5.1450    0.0730 c3        1 MOL      0.324610
    146 C49         5.3120    4.3670    0.9860 c         1 MOL      0.195127
    147 O21         5.5440    4.6880    2.1780 o         1 MOL     -0.519243
    148 C50         4.5120    6.6390    0.3380 c3        1 MOL     -0.029636
    149 C51         3.6640    7.6610   -0.4950 c3        1 MOL     -0.070860
    150 C52         3.8920    9.1480   -0.1380 c         1 MOL      0.651620
    151 O22         4.6150    9.7740   -0.9380 o         1 MOL     -0.692359
    152 O23         3.5090    9.5740    0.9790 o         1 MOL     -0.692359
    153 H65         2.6350    4.9270    1.3380 hn        1 MOL      0.352692
    154 H66         4.6220    4.9250   -0.9610 h1        1 MOL      0.069497
    155 H67         5.5270    6.9140    0.0150 hc        1 MOL      0.032163
    156 H68         4.3850    6.8350    1.4060 hc        1 MOL      0.032163
    157 H69         2.6230    7.4730   -0.2900 hc        1 MOL     -0.024695
    158 H70         3.8310    7.5230   -1.5670 hc        1 MOL     -0.024695
    159 N14         6.0090    3.3810    0.5130 n         1 MOL     -0.275872
    160 C53         6.0850    2.8030   -0.8310 c3        1 MOL     -0.000414
    161 C54         6.6890    3.6990   -1.9270 c         1 MOL      0.448686
    162 O24         7.4560    4.6470   -1.6570 o         1 MOL     -0.507458
    163 C55         6.9530    1.4760   -0.7810 c3        1 MOL      0.023082
    164 C56         6.3060    0.4780    0.1340 c3        1 MOL      0.006751
    165 C57         7.1650   -0.7920    0.3800 c         1 MOL      0.761843
    166 O25         6.9740   -1.7000   -0.4330 o         1 MOL     -0.797904
    167 O26         8.0790   -0.9010    1.2810 o         1 MOL     -0.797904
    168 H71         6.7150    3.0740    1.1610 hn        1 MOL      0.304064
    169 H72         5.0690    2.5410   -1.1360 h1        1 MOL      0.089240
    170 H73         7.8290    1.9310   -0.3260 hc        1 MOL     -0.018398
    171 H74         7.1040    1.0780   -1.7880 hc        1 MOL     -0.018398
    172 H75         5.4460    0.2100   -0.4750 hc        1 MOL     -0.026933
    173 H76         6.0660    0.9380    1.1000 hc        1 MOL     -0.026933
    174 N15         6.2500    3.4590   -3.1650 n         1 MOL     -0.413545
    175 C58         6.4300    4.4380   -4.3640 c3        1 MOL     -0.012818
    176 H77         7.3310    5.0320   -4.2140 h1        1 MOL      0.060692
    177 H78         6.5200    3.8690   -5.2880 h1        1 MOL      0.060692
    178 H79         5.5670    5.0990   -4.4260 h1        1 MOL      0.060692
    179 H80         5.6090    2.6970   -3.2820 hn        1 MOL      0.296699
    180 Ca1         8.1160   -3.5190    1.1270 Ca        1 MOL      1.693777
    181 O27        10.1120   -2.8470   -0.4580 oh        1 MOL     -0.840141
    182 H81        10.6480   -3.0640   -1.2220 ho        1 MOL      0.410932
    183 H82        10.6800   -2.3100    0.0900 ho        1 MOL      0.410932
    184 O28         9.8460   -2.8650    2.9200 oh        1 MOL     -0.840141
    185 H83         9.3580   -2.4100    3.6030 ho        1 MOL      0.410932
    186 H84        10.7480   -2.5500    3.0280 ho        1 MOL      0.410932
    187 O29         8.7720   -6.2460    1.8350 oh        1 MOL     -0.840141
    188 H85         7.8920   -6.5570    1.6490 ho        1 MOL      0.410932
    189 H86         8.8420   -6.2490    2.7860 ho        1 MOL      0.410932
    190 O30         7.5810   -4.5390    3.6390 oh        1 MOL     -0.840141
    191 H87         7.8100   -4.5060    4.5720 ho        1 MOL      0.410932
    192 H88         6.6850   -4.8600    3.6250 ho        1 MOL      0.410932
@<TRIPOS>BOND
     1    1    2 1   
     2    1    4 1   
     3    1    5 1   
     4    1    6 1   
     5    2    3 2   
     6    2    7 1   
     7    7    8 1   
     8    7   15 1   
     9    8    9 1   
    10    8   11 1   
    11    8   16 1   
    12    9   10 2   
    13    9   19 1   
    14   11   12 1   
    15   11   17 1   
    16   11   18 1   
    17   12   13 1   
    18   12   14 1   
    19   19   20 1   
    20   19   27 1   
    21   20   21 1   
    22   20   23 1   
    23   20   28 1   
    24   21   22 2   
    25   21   38 1   
    26   23   24 1   
    27   23   25 1   
    28   23   29 1   
    29   24   26 1   
    30   24   30 1   
    31   24   31 1   
    32   25   32 1   
    33   25   33 1   
    34   25   34 1   
    35   26   35 1   
    36   26   36 1   
    37   26   37 1   
    38   38   39 1   
    39   38   46 1   
    40   39   40 1   
    41   39   42 1   
    42   39   47 1   
    43   40   41 2   
    44   40   50 1   
    45   42   43 1   
    46   42   48 1   
    47   42   49 1   
    48   43   44 1   
    49   43   45 1   
    50   50   51 1   
    51   50   54 1   
    52   51   52 1   
    53   51   55 1   
    54   51   56 1   
    55   52   53 2   
    56   52   57 1   
    57   57   58 1   
    58   57   65 1   
    59   58   59 1   
    60   58   61 1   
    61   58   66 1   
    62   59   60 2   
    63   59   69 1   
    64   61   62 1   
    65   61   67 1   
    66   61   68 1   
    67   62   63 1   
    68   62   64 1   
    69   69   70 1   
    70   69   73 1   
    71   70   71 1   
    72   70   74 1   
    73   70   75 1   
    74   71   72 2   
    75   71   76 1   
    76   76   77 1   
    77   76   85 1   
    78   77   78 1   
    79   77   80 1   
    80   77   86 1   
    81   78   79 2   
    82   78   93 1   
    83   80   81 1   
    84   80   87 1   
    85   80   88 1   
    86   81   82 1   
    87   81   89 1   
    88   81   90 1   
    89   82   83 1   
    90   82   84 2   
    91   83   91 1   
    92   83   92 1   
    93   93   94 1   
    94   93  100 1   
    95   94   95 1   
    96   94   97 1   
    97   94  101 1   
    98   95   96 2   
    99   95  109 1   
   100   97   98 1   
   101   97   99 1   
   102   97  102 1   
   103   98  103 1   
   104   98  104 1   
   105   98  105 1   
   106   99  106 1   
   107   99  107 1   
   108   99  108 1   
   109  109  110 1   
   110  109  117 1   
   111  110  111 1   
   112  110  113 1   
   113  110  118 1   
   114  111  112 2   
   115  111  123 1   
   116  113  114 1   
   117  113  119 1   
   118  113  120 1   
   119  114  115 1   
   120  114  116 2   
   121  115  121 1   
   122  115  122 1   
   123  123  124 1   
   124  123  135 1   
   125  124  125 1   
   126  124  127 1   
   127  124  136 1   
   128  125  126 2   
   129  125  144 1   
   130  127  128 1   
   131  127  137 1   
   132  127  138 1   
   133  128  129 ar  
   134  128  130 ar  
   135  129  131 ar  
   136  129  139 1   
   137  130  132 ar  
   138  130  140 1   
   139  131  133 ar  
   140  131  141 1   
   141  132  133 ar  
   142  132  142 1   
   143  133  134 1   
   144  134  143 1   
   145  144  145 1   
   146  144  153 1   
   147  145  146 1   
   148  145  148 1   
   149  145  154 1   
   150  146  147 2   
   151  146  159 1   
   152  148  149 1   
   153  148  155 1   
   154  148  156 1   
   155  149  150 1   
   156  149  157 1   
   157  149  158 1   
   158  150  151 1   
   159  150  152 1   
   160  159  160 1   
   161  159  168 1   
   162  160  161 1   
   163  160  163 1   
   164  160  169 1   
   165  161  162 2   
   166  161  174 1   
   167  163  164 1   
   168  163  170 1   
   169  163  171 1   
   170  164  165 1   
   171  164  172 1   
   172  164  173 1   
   173  165  166 1   
   174  165  167 1   
   175  174  175 1   
   176  174  179 1   
   177  175  176 1   
   178  175  177 1   
   179  175  178 1   
   180  181  182 1   
   181  181  183 1   
   182  184  185 1   
   183  184  186 1   
   184  187  188 1   
   185  187  189 1   
   186  190  191 1   
   187  190  192 1   
@<TRIPOS>SUBSTRUCTURE
     1 MOL         1 TEMP              0 ****  ****    0 ROOT
