@<TRIPOS>MOLECULE
MOL
  179   176     1     0     0
SMALL
resp


@<TRIPOS>ATOM
      1 C1          3.0100    0.3010    6.4510 c3        1 MOL     -0.388151
      2 C2          2.8940    0.6080    4.9680 c         1 MOL      0.661598
      3 O1          3.7150    0.1730    4.1150 o         1 MOL     -0.566774
      4 H1          2.5370    1.0990    7.0230 hc        1 MOL      0.115856
      5 H2          2.5130   -0.6440    6.6660 hc        1 MOL      0.115856
      6 H3          4.0620    0.2320    6.7270 hc        1 MOL      0.115856
      7 N1          1.7660    1.2200    4.5210 n         1 MOL     -0.558219
      8 C3          1.2940    1.7010    3.1460 c3        1 MOL     -0.150525
      9 C4          1.9190    3.0140    2.6480 c         1 MOL      0.818603
     10 O2          1.8930    4.0450    3.3190 o         1 MOL     -0.604476
     11 C5         -0.2710    1.7800    3.0970 c3        1 MOL     -0.041871
     12 C6         -0.8900    2.0290    1.6890 c         1 MOL      0.718054
     13 O3         -2.0910    2.0030    1.4290 o         1 MOL     -0.744243
     14 O4         -0.1540    2.2530    0.6540 o         1 MOL     -0.744243
     15 H4          1.0760    1.3540    5.2570 hn        1 MOL      0.304964
     16 H5          1.5460    0.8770    2.4780 h1        1 MOL      0.077768
     17 H6         -0.6660    2.6210    3.6670 hc        1 MOL      0.022317
     18 H7         -0.7410    0.9450    3.6220 hc        1 MOL      0.022317
     19 N2          2.4910    3.0370    1.4570 n         1 MOL     -0.545578
     20 C7          3.2100    4.2200    0.9290 c3        1 MOL     -0.073440
     21 C8          2.2090    5.0840    0.1060 c         1 MOL      0.490606
     22 O5          2.5600    6.1570   -0.2980 o         1 MOL     -0.576754
     23 C9          4.2570    3.6650    0.0260 c3        1 MOL      0.211495
     24 C10         5.3560    4.6490   -0.3560 c3        1 MOL     -0.019368
     25 C11         6.4360    4.0040   -1.2040 c3        1 MOL      0.220488
     26 C12         7.6640    5.0020   -1.3150 c3        1 MOL     -0.128610
     27 N3          8.8150    4.7280   -0.4050 n4        1 MOL     -0.297170
     28 H8          2.3590    2.2100    0.8970 hn        1 MOL      0.304183
     29 H9          3.6970    4.8440    1.6790 h1        1 MOL      0.116057
     30 H10         3.8180    3.2200   -0.8710 hc        1 MOL     -0.019565
     31 H11         4.8000    2.8900    0.5610 hc        1 MOL     -0.019565
     32 H12         5.7510    4.9920    0.6060 hc        1 MOL     -0.008005
     33 H13         4.9620    5.5050   -0.9090 hc        1 MOL     -0.008005
     34 H14         6.0870    3.6970   -2.1860 hc        1 MOL     -0.030079
     35 H15         6.8350    3.1030   -0.7330 hc        1 MOL     -0.030079
     36 H16         7.3710    5.9930   -0.9750 hx        1 MOL      0.120131
     37 H17         8.1080    5.0840   -2.3040 hx        1 MOL      0.120131
     38 H18         8.5050    4.2840    0.4420 hn        1 MOL      0.313112
     39 H19         9.3720    4.0850   -0.9620 hn        1 MOL      0.313112
     40 H20         9.4720    5.4690   -0.2060 hn        1 MOL      0.313112
     41 N4          1.1380    4.5330   -0.4450 n         1 MOL     -0.238868
     42 C13         0.1950    5.3140   -1.3680 c3        1 MOL      0.021034
     43 C14        -1.1560    5.7360   -0.7120 c         1 MOL      0.386977
     44 O6         -1.9160    6.5020   -1.2140 o         1 MOL     -0.532137
     45 C15        -0.1230    4.5510   -2.6640 c3        1 MOL     -0.210936
     46 C16        -0.5390    3.1370   -2.3700 c         1 MOL      0.798765
     47 O7         -1.6430    2.9470   -1.8440 o         1 MOL     -0.714421
     48 O8          0.1130    2.1640   -2.7350 o         1 MOL     -0.714421
     49 H21         0.9830    3.5410   -0.3280 hn        1 MOL      0.150007
     50 H22         0.6150    6.2340   -1.7810 h1        1 MOL      0.122504
     51 H23         0.8030    4.4460   -3.2340 hc        1 MOL      0.052859
     52 H24        -0.8950    5.0220   -3.2770 hc        1 MOL      0.052859
     53 N5         -1.4580    5.1480    0.4280 n         1 MOL     -0.072626
     54 C17        -2.5400    5.4990    1.3130 c3        1 MOL     -0.387818
     55 C18        -3.8610    4.9680    0.8630 c         1 MOL      0.625818
     56 O9         -4.8460    5.3860    1.4590 o         1 MOL     -0.598741
     57 H25        -0.8550    4.3780    0.6750 hn        1 MOL      0.122063
     58 H26        -2.5970    6.5850    1.4470 h1        1 MOL      0.162583
     59 H27        -2.2640    4.9810    2.2330 h1        1 MOL      0.162583
     60 N6         -3.9150    4.3170   -0.2760 n         1 MOL     -0.188550
     61 C19        -5.1560    3.7960   -0.7890 c3        1 MOL      0.034294
     62 C20        -5.1790    2.2920   -0.9070 c         1 MOL      0.459073
     63 O10        -4.1070    1.6500   -0.9480 o         1 MOL     -0.465946
     64 C21        -5.3990    4.4970   -2.1990 c3        1 MOL     -0.144977
     65 C22        -4.9670    3.7220   -3.4630 c         1 MOL      0.518074
     66 N7         -3.7360    3.3760   -3.5410 n         1 MOL     -0.654590
     67 O11        -5.7550    3.2960   -4.3410 o         1 MOL     -0.601035
     68 H28        -3.0720    4.1230   -0.7940 hn        1 MOL      0.234264
     69 H29        -5.9990    4.0740   -0.1580 h1        1 MOL      0.050614
     70 H30        -4.9140    5.4720   -2.0670 hc        1 MOL      0.062769
     71 H31        -6.4600    4.6990   -2.3260 hc        1 MOL      0.062769
     72 H32        -3.0590    3.3990   -2.7840 hn        1 MOL      0.329744
     73 H33        -3.6640    2.8090   -4.3760 hn        1 MOL      0.329744
     74 N8         -6.4130    1.7780   -1.0760 n         1 MOL     -0.500162
     75 C23        -6.5300    0.4010   -1.5150 c3        1 MOL      0.025723
     76 C24        -6.0520   -0.5720   -0.4490 c         1 MOL      0.415263
     77 O12        -6.1570   -0.3110    0.7190 o         1 MOL     -0.438014
     78 H34        -7.2290    2.3720   -1.0830 hn        1 MOL      0.357904
     79 H35        -6.1950    0.2990   -2.5530 h1        1 MOL      0.066502
     80 H36        -7.5860    0.1900   -1.6310 h1        1 MOL      0.066502
     81 N9         -5.5190   -1.6950   -0.8540 n         1 MOL     -0.310043
     82 C25        -4.8930   -2.6740   -0.0380 c3        1 MOL     -0.001236
     83 C26        -3.6740   -2.1510    0.7020 c         1 MOL      0.347023
     84 O13        -3.2720   -0.9890    0.4200 o         1 MOL     -0.424360
     85 C27        -4.7000   -3.9340   -0.8380 c3        1 MOL     -0.242860
     86 C28        -5.8970   -4.7510   -1.3770 ca        1 MOL      0.167982
     87 C29        -6.4140   -4.6210   -2.6770 ca        1 MOL     -0.232495
     88 C30        -6.5520   -5.5090   -0.4120 ca        1 MOL     -0.232495
     89 C31        -7.5510   -5.3550   -3.0490 ca        1 MOL     -0.176703
     90 C32        -7.6840   -6.2200   -0.7910 ca        1 MOL     -0.176703
     91 C33        -8.1860   -6.1930   -2.0910 ca        1 MOL      0.268416
     92 O14        -9.2140   -6.9510   -2.4540 oh        1 MOL     -0.444521
     93 H37        -5.4850   -1.9120   -1.8460 hn        1 MOL      0.220740
     94 H38        -5.5750   -2.9400    0.7640 h1        1 MOL      0.112395
     95 H39        -4.0580   -4.5630   -0.2310 hc        1 MOL      0.054196
     96 H40        -4.1150   -3.5470   -1.6830 hc        1 MOL      0.054196
     97 H41        -5.9190   -3.9880   -3.3960 ha        1 MOL      0.155370
     98 H42        -6.1480   -5.6160    0.5820 ha        1 MOL      0.155370
     99 H43        -7.9040   -5.3810   -4.0700 ha        1 MOL      0.136191
    100 H44        -8.1740   -6.7800   -0.0030 ha        1 MOL      0.136191
    101 H45        -9.5500   -7.5730   -1.7980 ho        1 MOL      0.365586
    102 N10        -3.1680   -2.9090    1.6940 n         1 MOL     -0.380301
    103 C34        -2.3520   -2.6010    2.8820 c3        1 MOL     -0.019791
    104 C35        -0.9480   -2.0510    2.5060 c         1 MOL      0.624046
    105 O15        -0.7450   -1.0670    1.7620 o         1 MOL     -0.577406
    106 C36        -3.1600   -1.7090    3.8340 c3        1 MOL      0.400471
    107 C37        -2.6490   -1.3660    5.1900 c3        1 MOL     -0.402151
    108 C38        -4.6760   -2.1930    3.9730 c3        1 MOL     -0.306963
    109 C39        -2.4540   -2.5800    5.9710 c3        1 MOL     -0.044880
    110 H46        -3.4990   -3.8650    1.6550 hn        1 MOL      0.277550
    111 H47        -2.1320   -3.5130    3.4310 h1        1 MOL      0.024962
    112 H48        -3.2040   -0.7610    3.3090 hc        1 MOL     -0.035258
    113 H49        -3.3790   -0.7790    5.7430 hc        1 MOL      0.152410
    114 H50        -1.6560   -0.9210    5.1610 hc        1 MOL      0.152410
    115 H51        -5.1030   -1.4280    4.6120 hc        1 MOL      0.077101
    116 H52        -5.2250   -2.1910    3.0330 hc        1 MOL      0.077101
    117 H53        -4.7620   -3.2000    4.3880 hc        1 MOL      0.077101
    118 H54        -3.3790   -3.1410    6.1470 hc        1 MOL      0.012016
    119 H55        -1.7230   -3.2180    5.4780 hc        1 MOL      0.012016
    120 H56        -2.0000   -2.2860    6.9120 hc        1 MOL      0.012016
    121 N11         0.0420   -2.7290    3.0380 n         1 MOL     -0.674510
    122 C40         1.4730   -2.2000    3.1940 c3        1 MOL      0.135420
    123 C41         2.1450   -2.0780    1.7930 c         1 MOL      0.360855
    124 O16         3.2000   -1.4170    1.6760 o         1 MOL     -0.494352
    125 C42         2.2690   -3.1330    4.1730 c3        1 MOL     -0.058531
    126 O17         1.4600   -3.3130    5.3410 oh        1 MOL     -0.580600
    127 H57        -0.2100   -3.3880    3.7560 hn        1 MOL      0.342184
    128 H58         1.3920   -1.2750    3.7580 h1        1 MOL      0.174726
    129 H59         3.1340   -2.5340    4.4480 h1        1 MOL      0.145426
    130 H60         2.4140   -4.0920    3.6680 h1        1 MOL      0.145426
    131 H61         0.7700   -3.9640    5.1830 ho        1 MOL      0.387594
    132 N12         1.6440   -2.5760    0.6450 n         1 MOL     -0.265043
    133 C43         2.2860   -2.5040   -0.6160 c3        1 MOL      0.045504
    134 C44         2.1320   -1.1020   -1.1760 c         1 MOL      0.853982
    135 O18         0.9840   -0.5740   -1.1420 o         1 MOL     -0.707501
    136 C45         1.7810   -3.5320   -1.6060 c3        1 MOL     -0.494263
    137 H62         0.7100   -2.9430    0.6990 hn        1 MOL      0.203868
    138 H63         3.3210   -2.8330   -0.5090 h1        1 MOL      0.093448
    139 H64         1.8500   -4.5480   -1.2230 hc        1 MOL      0.138196
    140 H65         0.7550   -3.2280   -1.8260 hc        1 MOL      0.138196
    141 H66         2.3730   -3.5680   -2.5260 hc        1 MOL      0.138196
    142 N13         3.1020   -0.4350   -1.7590 n         1 MOL     -0.842448
    143 C46         4.4790   -0.8580   -1.7650 c3        1 MOL      0.310926
    144 C47         4.7390   -2.1350   -2.6560 c         1 MOL      0.877762
    145 O19         4.1590   -2.2050   -3.7340 o         1 MOL     -0.622829
    146 C48         5.4340    0.2700   -2.1040 c3        1 MOL     -0.254523
    147 H67         2.8850    0.4600   -2.1690 hn        1 MOL      0.410367
    148 H68         4.6520   -1.0470   -0.6990 h1        1 MOL      0.043376
    149 H69         6.3950   -0.0720   -1.7150 hc        1 MOL      0.063947
    150 H70         5.4640    0.3920   -3.1880 hc        1 MOL      0.063947
    151 H71         5.0680    1.1900   -1.6610 hc        1 MOL      0.063947
    152 N14         5.6100   -3.0500   -2.2610 n         1 MOL     -0.818928
    153 C49         6.4460   -3.0520   -1.0470 c3        1 MOL      0.036216
    154 C50         6.2470   -4.3230   -0.2710 c         1 MOL      0.517331
    155 O20         5.9870   -4.2370    0.9180 o         1 MOL     -0.577741
    156 C51         7.9520   -2.6400   -1.3370 c3        1 MOL      0.099225
    157 C52         8.7870   -3.6550   -2.1220 c3        1 MOL     -0.209904
    158 C53         8.1530   -3.9280   -3.5300 c         1 MOL      0.715856
    159 O21         8.3150   -3.0610   -4.3970 o         1 MOL     -0.672621
    160 O22         7.3680   -4.9310   -3.7340 o         1 MOL     -0.672621
    161 H72         5.9360   -3.6210   -3.0210 hn        1 MOL      0.353090
    162 H73         6.1810   -2.2390   -0.3690 h1        1 MOL      0.038661
    163 H74         8.3960   -2.3860   -0.3740 hc        1 MOL     -0.014657
    164 H75         7.9270   -1.7350   -1.9440 hc        1 MOL     -0.014657
    165 H76         8.7590   -4.6690   -1.7010 hc        1 MOL      0.015934
    166 H77         9.7720   -3.2310   -2.3210 hc        1 MOL      0.015934
    167 N15         6.2780   -5.4860   -0.9300 n         1 MOL     -0.161328
    168 C54         6.2820   -6.7370   -0.1710 c3        1 MOL     -0.139643
    169 H78         6.9760   -7.4380   -0.6340 h1        1 MOL      0.065377
    170 H79         6.5950   -6.5390    0.8540 h1        1 MOL      0.065377
    171 H80         5.2790   -7.1650   -0.1700 h1        1 MOL      0.065377
    172 H81         6.5370   -5.4890   -1.9110 hn        1 MOL      0.175696
    173 Ca1        -1.5930    0.5430   -0.8470 Ca        1 MOL      1.771979
    174 O23        -1.3470   -2.1940   -1.5450 oh        1 MOL     -0.811481
    175 H82        -1.3000   -2.9410   -0.9470 ho        1 MOL      0.403170
    176 H83        -0.8530   -2.4790   -2.3220 ho        1 MOL      0.403170
    177 O24        -2.6800    0.3140   -3.2050 oh        1 MOL     -0.811481
    178 H84        -2.8190    0.5470   -4.1210 ho        1 MOL      0.403170
    179 H85        -3.4960   -0.1240   -2.9510 ho        1 MOL      0.403170
@<TRIPOS>BOND
     1    1    2 1   
     2    1    4 1   
     3    1    5 1   
     4    1    6 1   
     5    2    3 2   
     6    2    7 1   
     7    7    8 1   
     8    7   15 1   
     9    8    9 1   
    10    8   11 1   
    11    8   16 1   
    12    9   10 2   
    13    9   19 1   
    14   11   12 1   
    15   11   17 1   
    16   11   18 1   
    17   12   13 1   
    18   12   14 1   
    19   19   20 1   
    20   19   28 1   
    21   20   21 1   
    22   20   23 1   
    23   20   29 1   
    24   21   22 2   
    25   21   41 1   
    26   23   24 1   
    27   23   30 1   
    28   23   31 1   
    29   24   25 1   
    30   24   32 1   
    31   24   33 1   
    32   25   26 1   
    33   25   34 1   
    34   25   35 1   
    35   26   27 1   
    36   26   36 1   
    37   26   37 1   
    38   27   38 1   
    39   27   39 1   
    40   27   40 1   
    41   41   42 1   
    42   41   49 1   
    43   42   43 1   
    44   42   45 1   
    45   42   50 1   
    46   43   44 2   
    47   43   53 1   
    48   45   46 1   
    49   45   51 1   
    50   45   52 1   
    51   46   47 1   
    52   46   48 1   
    53   53   54 1   
    54   53   57 1   
    55   54   55 1   
    56   54   58 1   
    57   54   59 1   
    58   55   56 2   
    59   55   60 1   
    60   60   61 1   
    61   60   68 1   
    62   61   62 1   
    63   61   64 1   
    64   61   69 1   
    65   62   63 2   
    66   62   74 1   
    67   64   65 1   
    68   64   70 1   
    69   64   71 1   
    70   65   66 1   
    71   65   67 2   
    72   66   72 1   
    73   66   73 1   
    74   74   75 1   
    75   74   78 1   
    76   75   76 1   
    77   75   79 1   
    78   75   80 1   
    79   76   77 2   
    80   76   81 1   
    81   81   82 1   
    82   81   93 1   
    83   82   83 1   
    84   82   85 1   
    85   82   94 1   
    86   83   84 2   
    87   83  102 1   
    88   85   86 1   
    89   85   95 1   
    90   85   96 1   
    91   86   87 ar  
    92   86   88 ar  
    93   87   89 ar  
    94   87   97 1   
    95   88   90 ar  
    96   88   98 1   
    97   89   91 ar  
    98   89   99 1   
    99   90   91 ar  
   100   90  100 1   
   101   91   92 1   
   102   92  101 1   
   103  102  103 1   
   104  102  110 1   
   105  103  104 1   
   106  103  106 1   
   107  103  111 1   
   108  104  105 2   
   109  104  121 1   
   110  106  107 1   
   111  106  108 1   
   112  106  112 1   
   113  107  109 1   
   114  107  113 1   
   115  107  114 1   
   116  108  115 1   
   117  108  116 1   
   118  108  117 1   
   119  109  118 1   
   120  109  119 1   
   121  109  120 1   
   122  121  122 1   
   123  121  127 1   
   124  122  123 1   
   125  122  125 1   
   126  122  128 1   
   127  123  124 2   
   128  123  132 1   
   129  125  126 1   
   130  125  129 1   
   131  125  130 1   
   132  126  131 1   
   133  132  133 1   
   134  132  137 1   
   135  133  134 1   
   136  133  136 1   
   137  133  138 1   
   138  134  135 2   
   139  134  142 1   
   140  136  139 1   
   141  136  140 1   
   142  136  141 1   
   143  142  143 1   
   144  142  147 1   
   145  143  144 1   
   146  143  146 1   
   147  143  148 1   
   148  144  145 2   
   149  144  152 1   
   150  146  149 1   
   151  146  150 1   
   152  146  151 1   
   153  152  153 1   
   154  152  161 1   
   155  153  154 1   
   156  153  156 1   
   157  153  162 1   
   158  154  155 2   
   159  154  167 1   
   160  156  157 1   
   161  156  163 1   
   162  156  164 1   
   163  157  158 1   
   164  157  165 1   
   165  157  166 1   
   166  158  159 1   
   167  158  160 1   
   168  167  168 1   
   169  167  172 1   
   170  168  169 1   
   171  168  170 1   
   172  168  171 1   
   173  174  175 1   
   174  174  176 1   
   175  177  178 1   
   176  177  179 1   
@<TRIPOS>SUBSTRUCTURE
     1 MOL         1 TEMP              0 ****  ****    0 ROOT
