@<TRIPOS>MOLECULE
MOL
  189   185     1     0     0
SMALL
resp


@<TRIPOS>ATOM
      1 C1          5.0000    3.3640   -4.1000 c3        1 MOL     -0.409854
      2 C2          5.4310    2.6150   -2.8350 c         1 MOL      0.767873
      3 O1          4.6450    2.4970   -1.9090 o         1 MOL     -0.596130
      4 H1          3.9240    3.5340   -4.0710 hc        1 MOL      0.106611
      5 H2          5.5170    4.3220   -4.1500 hc        1 MOL      0.106611
      6 H3          5.2500    2.7690   -4.9780 hc        1 MOL      0.106611
      7 N1          6.6350    1.9820   -2.8670 n         1 MOL     -0.781350
      8 C3          7.1070    1.0040   -1.8160 c3        1 MOL      0.290607
      9 C4          6.0700   -0.0940   -1.5140 c         1 MOL      0.098738
     10 O2          5.5660   -0.0870   -0.3560 o         1 MOL     -0.298713
     11 C5          7.8890    1.6580   -0.6240 c3        1 MOL     -0.089965
     12 C6          7.4700    3.0210   -0.1700 c         1 MOL      0.748692
     13 O3          6.5390    3.1120    0.7210 o         1 MOL     -0.732856
     14 O4          8.1310    4.0390   -0.4750 o         1 MOL     -0.732856
     15 H4          7.1250    1.9960   -3.7550 hn        1 MOL      0.355080
     16 H5          7.9010    0.4540   -2.3130 h1        1 MOL      0.050180
     17 H6          8.9070    1.6540   -1.0370 hc        1 MOL      0.013239
     18 H7          7.8900    0.9550    0.2150 hc        1 MOL      0.013239
     19 N2          5.8210   -0.9460   -2.5310 n         1 MOL     -0.290487
     20 C7          4.8600   -2.0190   -2.5530 c3        1 MOL      0.012197
     21 C8          5.3130   -3.1190   -1.5830 c         1 MOL      0.416968
     22 O5          5.6500   -4.1780   -2.0810 o         1 MOL     -0.552663
     23 C9          3.3750   -1.5610   -2.3690 c3        1 MOL      0.419751
     24 C10         2.4710   -2.8130   -2.6410 c3        1 MOL      0.006552
     25 C11         2.9840   -0.5190   -3.4290 c3        1 MOL     -0.157405
     26 C12         2.6390   -3.6430   -3.8950 c3        1 MOL     -0.590195
     27 H8          6.3550   -0.7960   -3.3760 hn        1 MOL      0.256962
     28 H9          4.8530   -2.4200   -3.5690 h1        1 MOL      0.036479
     29 H10         3.1650   -1.2100   -1.3580 hc        1 MOL     -0.229329
     30 H11         1.4810   -2.3740   -2.6210 hc        1 MOL      0.094356
     31 H12         2.6420   -3.5090   -1.8230 hc        1 MOL      0.094356
     32 H13         1.9440   -0.2790   -3.2420 hc        1 MOL      0.002006
     33 H14         3.6040    0.3700   -3.2570 hc        1 MOL      0.002006
     34 H15         3.0210   -0.8760   -4.4560 hc        1 MOL      0.002006
     35 H16         2.7270   -3.0750   -4.8200 hc        1 MOL      0.131955
     36 H17         3.5300   -4.2770   -3.8710 hc        1 MOL      0.131955
     37 H18         1.7820   -4.3070   -3.8040 hc        1 MOL      0.131955
     38 N3          5.5530   -2.9610   -0.2360 n         1 MOL     -0.041411
     39 C13         6.0780   -3.9680    0.6800 c3        1 MOL     -0.198891
     40 C14         5.0630   -5.0910    1.1100 c         1 MOL      0.627831
     41 O6          5.3790   -6.2780    0.9880 o         1 MOL     -0.601368
     42 C15         6.8610   -3.3430    1.9010 c3        1 MOL     -0.132525
     43 C16         7.7700   -2.1810    1.5930 c         1 MOL      0.760507
     44 O7          8.5870   -2.1860    0.6520 o         1 MOL     -0.719256
     45 O8          7.8960   -1.2580    2.4590 o         1 MOL     -0.719256
     46 H19         5.3440   -2.0620    0.1660 hn        1 MOL      0.092828
     47 H20         6.8620   -4.4650    0.1150 h1        1 MOL      0.099850
     48 H21         7.5120   -4.0560    2.4050 hc        1 MOL      0.037846
     49 H22         6.1530   -3.0900    2.6880 hc        1 MOL      0.037846
     50 N4          3.8330   -4.8430    1.5200 n         1 MOL     -0.532553
     51 C17         3.1240   -3.5330    1.6480 c3        1 MOL      0.095115
     52 C18         1.8330   -3.7510    2.4450 c         1 MOL      0.508096
     53 O9          1.2050   -4.7930    2.3330 o         1 MOL     -0.578761
     54 H23         3.1800   -5.5910    1.6860 hn        1 MOL      0.289364
     55 H24         2.8700   -3.1490    0.6590 h1        1 MOL      0.075465
     56 H25         3.8270   -2.8850    2.1630 h1        1 MOL      0.075465
     57 N5          1.2880   -2.8530    3.2410 n         1 MOL     -0.482922
     58 C19         1.8020   -1.4790    3.4390 c3        1 MOL      0.227929
     59 C20         2.1370   -0.7260    2.0940 c         1 MOL      0.344743
     60 O10         3.1910   -0.1520    1.9510 o         1 MOL     -0.543456
     61 C21         2.9980   -1.4360    4.4530 c3        1 MOL     -0.410172
     62 C22         3.6070   -0.0610    4.7520 c         1 MOL      0.788339
     63 O11         4.8540    0.1110    4.6840 o         1 MOL     -0.696756
     64 O12         2.8450    0.8650    5.0700 o         1 MOL     -0.696756
     65 H26         0.4030   -3.0810    3.6720 hn        1 MOL      0.290684
     66 H27         0.9840   -0.8630    3.8190 h1        1 MOL      0.047249
     67 H28         3.7920   -2.0480    4.0270 hc        1 MOL      0.085692
     68 H29         2.5700   -1.9330    5.3250 hc        1 MOL      0.085692
     69 N6          1.2290   -0.7490    1.1370 n         1 MOL     -0.188087
     70 C23        -0.1730   -1.1590    1.2080 c3        1 MOL     -0.113079
     71 C24        -0.5670   -2.4050    0.4990 c         1 MOL      0.619487
     72 O13         0.2260   -2.9050   -0.3250 o         1 MOL     -0.573379
     73 H30         1.6170   -0.4770    0.2490 hn        1 MOL      0.274478
     74 H31        -0.8010   -0.3840    0.7830 h1        1 MOL      0.059938
     75 H32        -0.4820   -1.1760    2.2510 h1        1 MOL      0.059938
     76 N7         -1.7830   -2.8410    0.7260 n         1 MOL     -0.525658
     77 C25        -2.3440   -4.0690    0.1570 c3        1 MOL      0.002398
     78 C26        -2.7820   -3.9860   -1.2590 c         1 MOL      0.336986
     79 O14        -2.8820   -5.0170   -1.9590 o         1 MOL     -0.526184
     80 C27        -3.5650   -4.5310    1.0420 c3        1 MOL      0.170371
     81 C28        -4.8120   -3.7140    0.8610 c3        1 MOL     -0.149484
     82 C29        -5.9380   -4.1670    1.7830 c         1 MOL      0.629066
     83 N8         -7.0560   -4.4750    1.2300 n         1 MOL     -0.720208
     84 O15        -5.7570   -4.2680    2.9830 o         1 MOL     -0.569665
     85 H33        -2.2500   -2.5500    1.5690 hn        1 MOL      0.304404
     86 H34        -1.5790   -4.8520    0.0930 h1        1 MOL      0.143842
     87 H35        -3.3020   -4.5070    2.1020 hc        1 MOL     -0.021813
     88 H36        -3.6460   -5.5740    0.7470 hc        1 MOL     -0.021813
     89 H37        -4.9990   -4.0490   -0.1660 hc        1 MOL      0.046313
     90 H38        -4.4710   -2.6880    0.9610 hc        1 MOL      0.046313
     91 H39        -7.3150   -4.2030    0.2890 hn        1 MOL      0.323225
     92 H40        -7.8780   -4.8080    1.7280 hn        1 MOL      0.323225
     93 N9         -3.0100   -2.8100   -1.8540 n         1 MOL      0.070595
     94 C30        -3.2920   -2.5050   -3.2610 c3        1 MOL     -0.531646
     95 C31        -4.5830   -1.7170   -3.3450 c         1 MOL      0.716918
     96 O16        -5.2610   -1.8840   -4.3500 o         1 MOL     -0.514355
     97 C32        -2.0490   -2.0600   -4.0230 c3        1 MOL      0.277393
     98 C33        -1.1310   -3.2800   -4.2550 c3        1 MOL     -0.303660
     99 C34        -1.3800   -0.8870   -3.3510 c3        1 MOL     -0.303660
    100 H41        -2.7580   -2.0020   -1.3000 hn        1 MOL      0.084578
    101 H42        -3.4660   -3.4880   -3.6910 h1        1 MOL      0.211827
    102 H43        -2.3820   -1.7430   -5.0120 hc        1 MOL      0.004278
    103 H44        -0.6620   -3.7000   -3.3670 hc        1 MOL      0.084034
    104 H45        -1.6720   -4.1240   -4.6780 hc        1 MOL      0.084034
    105 H46        -0.3640   -2.9150   -4.9440 hc        1 MOL      0.084034
    106 H47        -1.9570    0.0410   -3.3570 hc        1 MOL      0.084034
    107 H48        -1.0130   -1.2400   -2.3900 hc        1 MOL      0.084034
    108 H49        -0.4950   -0.6300   -3.9290 hc        1 MOL      0.084034
    109 N10        -5.0340   -1.0580   -2.2040 n         1 MOL     -0.720588
    110 C35        -6.3710   -0.5020   -2.0400 c3        1 MOL      0.451568
    111 C36        -6.3990    0.9360   -1.4790 c         1 MOL      0.332133
    112 O17        -7.2160    1.7790   -1.8720 o         1 MOL     -0.525925
    113 C37        -7.3390   -1.3830   -1.1590 c3        1 MOL     -0.224670
    114 C38        -7.6230   -2.6600   -1.8630 c         1 MOL      0.650602
    115 N11        -8.5950   -2.6860   -2.7550 n         1 MOL     -0.758790
    116 O18        -6.9860   -3.6380   -1.6780 o         1 MOL     -0.529132
    117 H50        -4.3510   -0.9140   -1.4710 hn        1 MOL      0.386212
    118 H51        -6.8400   -0.5110   -3.0190 h1        1 MOL     -0.021270
    119 H52        -8.2580   -0.8050   -1.1360 hc        1 MOL      0.022663
    120 H53        -6.9100   -1.6440   -0.1940 hc        1 MOL      0.022663
    121 H54        -9.2150   -1.8950   -2.7450 hn        1 MOL      0.356896
    122 H55        -8.7860   -3.5360   -3.2530 hn        1 MOL      0.356896
    123 N12        -5.4040    1.2570   -0.6270 n         1 MOL     -0.277141
    124 C39        -5.4350    2.4000    0.3030 c3        1 MOL      0.253270
    125 C40        -4.0460    3.0380    0.2420 c         1 MOL      0.292411
    126 O19        -3.0290    2.3600    0.1520 o         1 MOL     -0.415843
    127 C41        -5.7660    2.0090    1.7420 c3        1 MOL     -0.157673
    128 C42        -6.9570    1.1140    2.0580 ca        1 MOL      0.058683
    129 C43        -8.1300    1.4970    1.5140 ca        1 MOL     -0.138709
    130 C44        -6.8700   -0.0950    2.7220 ca        1 MOL     -0.138709
    131 C45        -9.2120    0.5870    1.4930 ca        1 MOL     -0.256822
    132 C46        -7.9390   -0.9950    2.7350 ca        1 MOL     -0.256822
    133 C47        -9.1610   -0.6730    2.0790 ca        1 MOL      0.368693
    134 O20       -10.1950   -1.5010    2.1450 oh        1 MOL     -0.551450
    135 H56        -4.6590    0.5730   -0.5980 hn        1 MOL      0.109132
    136 H57        -6.1390    3.1280   -0.1080 h1        1 MOL      0.006188
    137 H58        -5.9920    2.9250    2.2720 hc        1 MOL      0.099471
    138 H59        -4.8270    1.5780    2.0950 hc        1 MOL      0.099471
    139 H60        -8.2460    2.4000    0.9310 ha        1 MOL      0.130975
    140 H61        -5.8900   -0.3630    3.1040 ha        1 MOL      0.130975
    141 H62       -10.1360    0.8480    0.9900 ha        1 MOL      0.127088
    142 H63        -7.7860   -1.9760    3.1600 ha        1 MOL      0.127088
    143 H64        -9.9670   -2.3010    2.6230 ho        1 MOL      0.400735
    144 N13        -4.0490    4.3230    0.4680 n         1 MOL     -0.437936
    145 C48        -2.9460    5.2380    0.8640 c3        1 MOL      0.073816
    146 C49        -1.7590    5.2940   -0.1240 c         1 MOL      0.168742
    147 O21        -0.9970    6.2830   -0.1070 o         1 MOL     -0.500245
    148 C50        -2.5510    4.9890    2.3230 c3        1 MOL      0.298655
    149 C51        -3.6800    5.0500    3.3590 c3        1 MOL     -0.412088
    150 C52        -3.2190    4.8380    4.8070 c         1 MOL      0.715478
    151 O22        -2.6120    3.7790    5.1350 o         1 MOL     -0.715237
    152 O23        -3.5170    5.7100    5.7090 o         1 MOL     -0.715237
    153 H65        -4.9980    4.6650    0.4960 hn        1 MOL      0.279069
    154 H66        -3.4670    6.1960    0.9180 h1        1 MOL      0.058687
    155 H67        -1.8610    5.7730    2.6370 hc        1 MOL     -0.007138
    156 H68        -2.0060    4.0470    2.2910 hc        1 MOL     -0.007138
    157 H69        -4.5060    4.4120    3.0390 hc        1 MOL      0.037077
    158 H70        -4.1100    6.0310    3.1790 hc        1 MOL      0.037077
    159 N14        -1.5170    4.3120   -0.9820 n         1 MOL      0.069497
    160 C53        -0.3470    4.3600   -1.9230 c3        1 MOL     -0.309585
    161 C54        -0.6280    5.2360   -3.2010 c         1 MOL      0.507793
    162 O24         0.2300    5.4650   -4.0340 o         1 MOL     -0.511880
    163 C55        -0.0400    2.9900   -2.3860 c3        1 MOL     -0.114530
    164 C56         0.2210    1.9220   -1.2690 c3        1 MOL      0.385399
    165 C57         1.5820    2.0330   -0.6580 c         1 MOL      0.483223
    166 O25         2.3670    1.0410   -0.8000 o         1 MOL     -0.604366
    167 O26         1.8350    2.9460    0.1470 o         1 MOL     -0.604366
    168 H71        -2.2270    3.6370   -1.2090 hn        1 MOL      0.147219
    169 H72         0.5550    4.6740   -1.3960 h1        1 MOL      0.209183
    170 H73         0.8320    3.0500   -3.0360 hc        1 MOL      0.034925
    171 H74        -0.8820    2.6790   -3.0160 hc        1 MOL      0.034925
    172 H75         0.0140    0.9340   -1.6820 hc        1 MOL     -0.141994
    173 H76        -0.4880    1.9620   -0.4450 hc        1 MOL     -0.141994
    174 N15        -1.9210    5.6320   -3.3490 n         1 MOL     -0.208569
    175 C58        -2.4120    6.4560   -4.4980 c3        1 MOL     -0.312100
    176 H77        -3.4880    6.6030   -4.4050 h1        1 MOL      0.117623
    177 H78        -1.9120    7.4250   -4.4910 h1        1 MOL      0.117623
    178 H79        -2.1960    5.9420   -5.4340 h1        1 MOL      0.117623
    179 H80        -2.6070    5.3300   -2.6700 hn        1 MOL      0.204088
    180 Ca1         4.3000    1.9870    0.7370 Ca        1 MOL      1.697897
    181 O27         3.6530    2.7320    3.1860 oh        1 MOL     -0.877423
    182 H81         3.6020    3.6850    3.2990 ho        1 MOL      0.412010
    183 H82         3.3760    2.3740    4.0280 ho        1 MOL      0.412010
    184 O28         6.0780    0.7430    2.3670 oh        1 MOL     -0.877423
    185 H83         6.8750    0.2240    2.3670 ho        1 MOL      0.412010
    186 H84         5.5410    0.3730    3.0610 ho        1 MOL      0.412010
    187 O29         4.1960    4.6350    0.5180 oh        1 MOL     -0.877423
    188 H85         4.9470    5.1080    0.1680 ho        1 MOL      0.412010
    189 H86         3.4540    5.2210    0.3660 ho        1 MOL      0.412010
@<TRIPOS>BOND
     1    1    2 1   
     2    1    4 1   
     3    1    5 1   
     4    1    6 1   
     5    2    3 2   
     6    2    7 1   
     7    7    8 1   
     8    7   15 1   
     9    8    9 1   
    10    8   11 1   
    11    8   16 1   
    12    9   10 2   
    13    9   19 1   
    14   11   12 1   
    15   11   17 1   
    16   11   18 1   
    17   12   13 1   
    18   12   14 1   
    19   19   20 1   
    20   19   27 1   
    21   20   21 1   
    22   20   23 1   
    23   20   28 1   
    24   21   22 2   
    25   21   38 1   
    26   23   24 1   
    27   23   25 1   
    28   23   29 1   
    29   24   26 1   
    30   24   30 1   
    31   24   31 1   
    32   25   32 1   
    33   25   33 1   
    34   25   34 1   
    35   26   35 1   
    36   26   36 1   
    37   26   37 1   
    38   38   39 1   
    39   38   46 1   
    40   39   40 1   
    41   39   42 1   
    42   39   47 1   
    43   40   41 2   
    44   40   50 1   
    45   42   43 1   
    46   42   48 1   
    47   42   49 1   
    48   43   44 1   
    49   43   45 1   
    50   50   51 1   
    51   50   54 1   
    52   51   52 1   
    53   51   55 1   
    54   51   56 1   
    55   52   53 2   
    56   52   57 1   
    57   57   58 1   
    58   57   65 1   
    59   58   59 1   
    60   58   61 1   
    61   58   66 1   
    62   59   60 2   
    63   59   69 1   
    64   61   62 1   
    65   61   67 1   
    66   61   68 1   
    67   62   63 1   
    68   62   64 1   
    69   69   70 1   
    70   69   73 1   
    71   70   71 1   
    72   70   74 1   
    73   70   75 1   
    74   71   72 2   
    75   71   76 1   
    76   76   77 1   
    77   76   85 1   
    78   77   78 1   
    79   77   80 1   
    80   77   86 1   
    81   78   79 2   
    82   78   93 1   
    83   80   81 1   
    84   80   87 1   
    85   80   88 1   
    86   81   82 1   
    87   81   89 1   
    88   81   90 1   
    89   82   83 1   
    90   82   84 2   
    91   83   91 1   
    92   83   92 1   
    93   93   94 1   
    94   93  100 1   
    95   94   95 1   
    96   94   97 1   
    97   94  101 1   
    98   95   96 2   
    99   95  109 1   
   100   97   98 1   
   101   97   99 1   
   102   97  102 1   
   103   98  103 1   
   104   98  104 1   
   105   98  105 1   
   106   99  106 1   
   107   99  107 1   
   108   99  108 1   
   109  109  110 1   
   110  109  117 1   
   111  110  111 1   
   112  110  113 1   
   113  110  118 1   
   114  111  112 2   
   115  111  123 1   
   116  113  114 1   
   117  113  119 1   
   118  113  120 1   
   119  114  115 1   
   120  114  116 2   
   121  115  121 1   
   122  115  122 1   
   123  123  124 1   
   124  123  135 1   
   125  124  125 1   
   126  124  127 1   
   127  124  136 1   
   128  125  126 2   
   129  125  144 1   
   130  127  128 1   
   131  127  137 1   
   132  127  138 1   
   133  128  129 ar  
   134  128  130 ar  
   135  129  131 ar  
   136  129  139 1   
   137  130  132 ar  
   138  130  140 1   
   139  131  133 ar  
   140  131  141 1   
   141  132  133 ar  
   142  132  142 1   
   143  133  134 1   
   144  134  143 1   
   145  144  145 1   
   146  144  153 1   
   147  145  146 1   
   148  145  148 1   
   149  145  154 1   
   150  146  147 2   
   151  146  159 1   
   152  148  149 1   
   153  148  155 1   
   154  148  156 1   
   155  149  150 1   
   156  149  157 1   
   157  149  158 1   
   158  150  151 1   
   159  150  152 1   
   160  159  160 1   
   161  159  168 1   
   162  160  161 1   
   163  160  163 1   
   164  160  169 1   
   165  161  162 2   
   166  161  174 1   
   167  163  164 1   
   168  163  170 1   
   169  163  171 1   
   170  164  165 1   
   171  164  172 1   
   172  164  173 1   
   173  165  166 1   
   174  165  167 1   
   175  174  175 1   
   176  174  179 1   
   177  175  176 1   
   178  175  177 1   
   179  175  178 1   
   180  181  182 1   
   181  181  183 1   
   182  184  185 1   
   183  184  186 1   
   184  187  188 1   
   185  187  189 1   
@<TRIPOS>SUBSTRUCTURE
     1 MOL         1 TEMP              0 ****  ****    0 ROOT
