@<TRIPOS>MOLECULE
MOL
  189   185     1     0     0
SMALL
resp


@<TRIPOS>ATOM
      1 C1          4.7720    3.6700   -3.6770 c3        1 MOL     -0.419997
      2 C2          5.4140    2.8820   -2.5520 c         1 MOL      0.771456
      3 O1          4.7670    2.6460   -1.5790 o         1 MOL     -0.630212
      4 H1          5.0850    3.2550   -4.6350 hc        1 MOL      0.098021
      5 H2          3.6870    3.6070   -3.5920 hc        1 MOL      0.098021
      6 H3          5.0830    4.7120   -3.6140 hc        1 MOL      0.098021
      7 N1          6.6840    2.4920   -2.7930 n         1 MOL     -0.713864
      8 C3          7.3640    1.3650   -2.0270 c3        1 MOL      0.166922
      9 C4          6.4280    0.1990   -1.7650 c         1 MOL      0.280166
     10 O2          5.8890    0.1190   -0.6180 o         1 MOL     -0.227399
     11 C5          8.3140    1.7930   -0.8430 c3        1 MOL     -0.053004
     12 C6          7.8630    2.9200    0.1490 c         1 MOL      0.628862
     13 O3          6.6350    3.1180    0.4470 o         1 MOL     -0.679333
     14 O4          8.7820    3.4400    0.8210 o         1 MOL     -0.679333
     15 H4          7.2420    2.9740   -3.4790 hn        1 MOL      0.363946
     16 H5          8.0700    1.1010   -2.8200 h1        1 MOL      0.033811
     17 H6          9.0920    2.1900   -1.4870 hc        1 MOL     -0.001883
     18 H7          8.6670    0.9260   -0.2830 hc        1 MOL     -0.001883
     19 N2          6.0770   -0.6110   -2.8080 n         1 MOL     -0.569979
     20 C7          5.2190   -1.7960   -2.7490 c3        1 MOL      0.197729
     21 C8          5.6740   -2.9390   -1.8040 c         1 MOL      0.347514
     22 O5          5.5990   -4.0940   -2.1510 o         1 MOL     -0.535110
     23 C9          3.7620   -1.3920   -2.3400 c3        1 MOL      0.327514
     24 C10         2.7620   -2.6270   -2.3380 c3        1 MOL     -0.115064
     25 C11         3.2500   -0.2700   -3.2790 c3        1 MOL     -0.277259
     26 C12         2.6950   -3.2500   -3.7220 c3        1 MOL     -0.164062
     27 H8          6.2970   -0.2930   -3.7440 hn        1 MOL      0.322404
     28 H9          5.1590   -2.2860   -3.7290 h1        1 MOL      0.005211
     29 H10         3.8280   -1.0730   -1.3030 hc        1 MOL     -0.192574
     30 H11         1.8270   -2.2360   -1.9570 hc        1 MOL      0.105540
     31 H12         3.1340   -3.4560   -1.7190 hc        1 MOL      0.105540
     32 H13         2.2640    0.0440   -2.9450 hc        1 MOL      0.059413
     33 H14         3.9450    0.5560   -3.1580 hc        1 MOL      0.059413
     34 H15         3.2220   -0.4210   -4.3670 hc        1 MOL      0.059413
     35 H16         2.6020   -2.5480   -4.5580 hc        1 MOL      0.018200
     36 H17         3.5960   -3.8530   -3.8400 hc        1 MOL      0.018200
     37 H18         1.9110   -4.0030   -3.7340 hc        1 MOL      0.018200
     38 N3          6.2570   -2.6820   -0.6630 n         1 MOL     -0.085838
     39 C13         6.8960   -3.7560    0.2390 c3        1 MOL     -0.004338
     40 C14         5.9810   -4.9080    0.7440 c         1 MOL      0.603146
     41 O6          6.3440   -6.0540    0.6250 o         1 MOL     -0.587596
     42 C15         7.6680   -3.0970    1.3390 c3        1 MOL     -0.132388
     43 C16         8.6680   -2.0940    0.7750 c         1 MOL      0.606503
     44 O7          9.4380   -2.4310   -0.1600 o         1 MOL     -0.659457
     45 O8          8.6440   -0.9410    1.3880 o         1 MOL     -0.659457
     46 H19         6.3450   -1.7390   -0.3090 hn        1 MOL      0.141124
     47 H20         7.5590   -4.2890   -0.4370 h1        1 MOL      0.053585
     48 H21         8.2280   -3.8280    1.9130 hc        1 MOL      0.046178
     49 H22         7.0090   -2.5490    2.0100 hc        1 MOL      0.046178
     50 N4          4.7780   -4.7150    1.3050 n         1 MOL     -0.548677
     51 C17         4.0940   -3.4730    1.6600 c3        1 MOL      0.109482
     52 C18         4.1520   -3.0410    3.1340 c         1 MOL      0.584892
     53 O9          4.8740   -3.6440    3.9110 o         1 MOL     -0.591730
     54 H23         4.2350   -5.5560    1.4520 hn        1 MOL      0.306046
     55 H24         3.0320   -3.5840    1.4390 h1        1 MOL      0.009313
     56 H25         4.5510   -2.6480    1.1100 h1        1 MOL      0.009313
     57 N5          3.3170   -2.1240    3.5730 n         1 MOL     -0.478221
     58 C19         2.0510   -1.5710    3.1330 c3        1 MOL      0.246800
     59 C20         2.1500   -1.0250    1.6960 c         1 MOL      0.201484
     60 O10         3.1920   -0.5500    1.3090 o         1 MOL     -0.581106
     61 C21         1.6320   -0.5090    4.1240 c3        1 MOL     -0.289431
     62 C22         2.5880    0.7750    4.0930 c         1 MOL      0.771870
     63 O11         3.2210    1.0080    5.1390 o         1 MOL     -0.694321
     64 O12         2.7600    1.4740    3.0690 o         1 MOL     -0.694321
     65 H26         3.4910   -1.8560    4.5350 hn        1 MOL      0.291336
     66 H27         1.3340   -2.3830    3.2250 h1        1 MOL     -0.010332
     67 H28         1.6590   -0.9080    5.1470 hc        1 MOL      0.071192
     68 H29         0.5970   -0.2540    3.9090 hc        1 MOL      0.071192
     69 N6          1.1530   -0.8630    0.9160 n         1 MOL     -0.114199
     70 C23        -0.2000   -1.3340    1.1410 c3        1 MOL     -0.037903
     71 C24        -0.5770   -2.6250    0.3670 c         1 MOL      0.645289
     72 O13         0.2380   -3.1250   -0.4160 o         1 MOL     -0.568421
     73 H30         1.4280   -0.3080    0.1160 hn        1 MOL      0.255727
     74 H31        -0.8720   -0.5140    0.9130 h1        1 MOL      0.042550
     75 H32        -0.3290   -1.5700    2.1970 h1        1 MOL      0.042550
     76 N7         -1.8330   -3.0490    0.5320 n         1 MOL     -0.485306
     77 C25        -2.3940   -4.2820    0.0230 c3        1 MOL      0.050610
     78 C26        -3.0250   -4.2910   -1.3760 c         1 MOL      0.343483
     79 O14        -3.1900   -5.3170   -2.0200 o         1 MOL     -0.519306
     80 C27        -3.4390   -4.8210    1.0340 c3        1 MOL     -0.125994
     81 C28        -4.7290   -3.8910    1.2190 c3        1 MOL      0.075324
     82 C29        -5.8290   -4.5590    1.9510 c         1 MOL      0.546563
     83 N8         -7.0560   -4.0010    1.9350 n         1 MOL     -0.713312
     84 O15        -5.6730   -5.6020    2.6140 o         1 MOL     -0.559180
     85 H33        -2.5010   -2.4810    1.0370 hn        1 MOL      0.242781
     86 H34        -1.6000   -5.0320   -0.0370 h1        1 MOL      0.129496
     87 H35        -3.0690   -5.1240    2.0090 hc        1 MOL      0.046182
     88 H36        -3.8990   -5.7380    0.6620 hc        1 MOL      0.046182
     89 H37        -5.1330   -3.6310    0.2430 hc        1 MOL      0.034885
     90 H38        -4.4730   -3.0390    1.8570 hc        1 MOL      0.034885
     91 H39        -7.2950   -3.1780    1.4030 hn        1 MOL      0.330671
     92 H40        -7.7990   -4.5170    2.3830 hn        1 MOL      0.330671
     93 N9         -3.2160   -3.0990   -1.9140 n         1 MOL     -0.042262
     94 C30        -3.6240   -2.8460   -3.3450 c3        1 MOL     -0.236461
     95 C31        -4.9020   -2.0570   -3.6330 c         1 MOL      0.441264
     96 O16        -5.3510   -1.8310   -4.7560 o         1 MOL     -0.518791
     97 C32        -2.4080   -2.1080   -4.0800 c3        1 MOL      0.314652
     98 C33        -1.2130   -2.9720   -4.0830 c3        1 MOL     -0.158537
     99 C34        -2.0330   -0.8070   -3.3930 c3        1 MOL     -0.158537
    100 H41        -3.2370   -2.3000   -1.3040 hn        1 MOL      0.152882
    101 H42        -3.7790   -3.7730   -3.9110 h1        1 MOL      0.138062
    102 H43        -2.7340   -1.9880   -5.1170 hc        1 MOL     -0.031524
    103 H44        -0.7420   -3.1520   -3.1190 hc        1 MOL      0.023927
    104 H45        -1.4450   -3.8840   -4.6450 hc        1 MOL      0.023927
    105 H46        -0.4410   -2.4210   -4.6330 hc        1 MOL      0.023927
    106 H47        -2.9030   -0.2100   -3.1430 hc        1 MOL      0.023927
    107 H48        -1.4570   -1.0130   -2.4890 hc        1 MOL      0.023927
    108 H49        -1.4180   -0.2380   -4.0820 hc        1 MOL      0.023927
    109 N10        -5.5050   -1.5030   -2.5430 n         1 MOL     -0.180335
    110 C35        -6.6200   -0.5610   -2.6450 c3        1 MOL      0.025584
    111 C36        -6.5640    0.7860   -1.7960 c         1 MOL      0.569247
    112 O17        -7.1360    1.8110   -2.1850 o         1 MOL     -0.576437
    113 C37        -7.9380   -1.3030   -2.4040 c3        1 MOL     -0.261549
    114 C38        -8.0740   -2.0330   -1.0190 c         1 MOL      0.618728
    115 N11        -9.2310   -2.3440   -0.6480 n         1 MOL     -0.716090
    116 O18        -7.0910   -2.2650   -0.2810 o         1 MOL     -0.582504
    117 H50        -5.2640   -1.8020   -1.6090 hn        1 MOL      0.087732
    118 H51        -6.7210   -0.1700   -3.6560 h1        1 MOL      0.091117
    119 H52        -8.0560   -2.1050   -3.1280 hc        1 MOL      0.093403
    120 H53        -8.7990   -0.6440   -2.5670 hc        1 MOL      0.093403
    121 H54       -10.0350   -2.1760   -1.2360 hn        1 MOL      0.354535
    122 H55        -9.3270   -2.8580    0.2130 hn        1 MOL      0.354535
    123 N12        -5.8420    0.7220   -0.7590 n         1 MOL     -0.489223
    124 C39        -5.7070    1.8160    0.2280 c3        1 MOL      0.173029
    125 C40        -4.4010    2.5700    0.1380 c         1 MOL      0.444510
    126 O19        -3.3360    1.9000   -0.1230 o         1 MOL     -0.495509
    127 C41        -6.0580    1.1590    1.5600 c3        1 MOL     -0.085984
    128 C42        -7.3950    0.5120    1.8340 ca        1 MOL      0.047118
    129 C43        -7.4370   -0.7590    2.4360 ca        1 MOL     -0.113472
    130 C44        -8.5380    1.0970    1.3630 ca        1 MOL     -0.113472
    131 C45        -8.7380   -1.4120    2.5590 ca        1 MOL     -0.291192
    132 C46        -9.8260    0.4870    1.5220 ca        1 MOL     -0.291192
    133 C47        -9.8780   -0.7480    2.1600 ca        1 MOL      0.380538
    134 O20       -11.0840   -1.4510    2.1250 oh        1 MOL     -0.564474
    135 H56        -5.4200   -0.1610   -0.5150 hn        1 MOL      0.279821
    136 H57        -6.4820    2.5370    0.0030 h1        1 MOL      0.022370
    137 H58        -5.9830    1.9770    2.2800 hc        1 MOL      0.063367
    138 H59        -5.2630    0.4600    1.8190 hc        1 MOL      0.063367
    139 H60        -6.5040   -1.2570    2.6500 ha        1 MOL      0.123221
    140 H61        -8.4130    1.9570    0.7140 ha        1 MOL      0.123221
    141 H62        -8.8280   -2.4640    2.7990 ha        1 MOL      0.129761
    142 H63       -10.7330    0.8360    1.0480 ha        1 MOL      0.129761
    143 H64       -11.7690   -1.0430    1.5900 ho        1 MOL      0.380069
    144 N13        -4.4670    3.8910    0.5360 n         1 MOL     -0.460591
    145 C48        -3.3630    4.8300    0.8710 c3        1 MOL      0.019697
    146 C49        -2.2050    5.1000   -0.1130 c         1 MOL      0.435642
    147 O21        -1.6740    6.2220   -0.0780 o         1 MOL     -0.520198
    148 C50        -2.8890    4.4050    2.2840 c3        1 MOL      0.201390
    149 C51        -3.9030    4.5480    3.4540 c3        1 MOL     -0.333918
    150 C52        -3.3320    4.0830    4.8430 c         1 MOL      0.752005
    151 O22        -3.5380    4.8690    5.7820 o         1 MOL     -0.720281
    152 O23        -2.7040    3.0150    4.9830 o         1 MOL     -0.720281
    153 H65        -5.4180    4.1920    0.6830 hn        1 MOL      0.298072
    154 H66        -3.8120    5.8150    1.0100 h1        1 MOL      0.050294
    155 H67        -1.9710    4.9500    2.5200 hc        1 MOL      0.012633
    156 H68        -2.5370    3.3700    2.2600 hc        1 MOL      0.012633
    157 H69        -4.8520    4.0360    3.3430 hc        1 MOL      0.027347
    158 H70        -3.9940    5.6330    3.5630 hc        1 MOL      0.027347
    159 N14        -1.8690    4.1510   -0.9410 n         1 MOL     -0.348262
    160 C53        -0.7240    4.3500   -1.8890 c3        1 MOL     -0.291494
    161 C54        -1.2010    5.3520   -3.0250 c         1 MOL      0.551246
    162 O24        -0.4240    6.0490   -3.6870 o         1 MOL     -0.546889
    163 C55        -0.2010    2.9560   -2.2650 c3        1 MOL      0.089685
    164 C56         0.1720    1.9640   -1.1710 c3        1 MOL      0.307373
    165 C57         1.2110    2.5370   -0.2080 c         1 MOL      0.577061
    166 O25         2.3100    1.9780   -0.1020 o         1 MOL     -0.638263
    167 O26         1.0470    3.6740    0.3880 o         1 MOL     -0.638263
    168 H71        -2.1740    3.1890   -0.8280 hn        1 MOL      0.290767
    169 H72         0.0900    4.8400   -1.3440 h1        1 MOL      0.204147
    170 H73         0.5930    3.0900   -2.9980 hc        1 MOL     -0.016559
    171 H74        -0.9960    2.4780   -2.8330 hc        1 MOL     -0.016559
    172 H75         0.6250    1.1220   -1.6870 hc        1 MOL     -0.131163
    173 H76        -0.6370    1.5610   -0.5630 hc        1 MOL     -0.131163
    174 N15        -2.5090    5.4360   -3.2890 n         1 MOL     -0.181986
    175 C58        -3.1650    6.2270   -4.3200 c3        1 MOL     -0.390343
    176 H77        -2.8940    5.8390   -5.3020 h1        1 MOL      0.134058
    177 H78        -4.2450    6.1670   -4.1930 h1        1 MOL      0.134058
    178 H79        -2.8460    7.2660   -4.2390 h1        1 MOL      0.134058
    179 H80        -3.1580    5.0020   -2.6530 hn        1 MOL      0.192937
    180 Ca1         4.5610    1.8140    1.0780 Ca        1 MOL      1.735712
    181 O27         6.4810    0.5370    2.4740 oh        1 MOL     -0.868618
    182 H81         6.4720    0.1220    3.3350 ho        1 MOL      0.403896
    183 H82         7.1890    0.0990    2.0000 ho        1 MOL      0.403896
    184 O28         3.5730    4.3040    1.1230 oh        1 MOL     -0.868618
    185 H83         2.6500    4.0730    0.9800 ho        1 MOL      0.403896
    186 H84         3.7070    5.0840    0.5830 ho        1 MOL      0.403896
    187 O29         4.8630    2.9070    3.7300 oh        1 MOL     -0.868618
    188 H85         4.0550    2.4470    3.9530 ho        1 MOL      0.403896
    189 H86         5.1070    3.3800    4.5300 ho        1 MOL      0.403896
@<TRIPOS>BOND
     1    1    2 1   
     2    1    4 1   
     3    1    5 1   
     4    1    6 1   
     5    2    3 2   
     6    2    7 1   
     7    7    8 1   
     8    7   15 1   
     9    8    9 1   
    10    8   11 1   
    11    8   16 1   
    12    9   10 2   
    13    9   19 1   
    14   11   12 1   
    15   11   17 1   
    16   11   18 1   
    17   12   13 1   
    18   12   14 1   
    19   19   20 1   
    20   19   27 1   
    21   20   21 1   
    22   20   23 1   
    23   20   28 1   
    24   21   22 2   
    25   21   38 1   
    26   23   24 1   
    27   23   25 1   
    28   23   29 1   
    29   24   26 1   
    30   24   30 1   
    31   24   31 1   
    32   25   32 1   
    33   25   33 1   
    34   25   34 1   
    35   26   35 1   
    36   26   36 1   
    37   26   37 1   
    38   38   39 1   
    39   38   46 1   
    40   39   40 1   
    41   39   42 1   
    42   39   47 1   
    43   40   41 2   
    44   40   50 1   
    45   42   43 1   
    46   42   48 1   
    47   42   49 1   
    48   43   44 1   
    49   43   45 1   
    50   50   51 1   
    51   50   54 1   
    52   51   52 1   
    53   51   55 1   
    54   51   56 1   
    55   52   53 2   
    56   52   57 1   
    57   57   58 1   
    58   57   65 1   
    59   58   59 1   
    60   58   61 1   
    61   58   66 1   
    62   59   60 2   
    63   59   69 1   
    64   61   62 1   
    65   61   67 1   
    66   61   68 1   
    67   62   63 1   
    68   62   64 1   
    69   69   70 1   
    70   69   73 1   
    71   70   71 1   
    72   70   74 1   
    73   70   75 1   
    74   71   72 2   
    75   71   76 1   
    76   76   77 1   
    77   76   85 1   
    78   77   78 1   
    79   77   80 1   
    80   77   86 1   
    81   78   79 2   
    82   78   93 1   
    83   80   81 1   
    84   80   87 1   
    85   80   88 1   
    86   81   82 1   
    87   81   89 1   
    88   81   90 1   
    89   82   83 1   
    90   82   84 2   
    91   83   91 1   
    92   83   92 1   
    93   93   94 1   
    94   93  100 1   
    95   94   95 1   
    96   94   97 1   
    97   94  101 1   
    98   95   96 2   
    99   95  109 1   
   100   97   98 1   
   101   97   99 1   
   102   97  102 1   
   103   98  103 1   
   104   98  104 1   
   105   98  105 1   
   106   99  106 1   
   107   99  107 1   
   108   99  108 1   
   109  109  110 1   
   110  109  117 1   
   111  110  111 1   
   112  110  113 1   
   113  110  118 1   
   114  111  112 2   
   115  111  123 1   
   116  113  114 1   
   117  113  119 1   
   118  113  120 1   
   119  114  115 1   
   120  114  116 2   
   121  115  121 1   
   122  115  122 1   
   123  123  124 1   
   124  123  135 1   
   125  124  125 1   
   126  124  127 1   
   127  124  136 1   
   128  125  126 2   
   129  125  144 1   
   130  127  128 1   
   131  127  137 1   
   132  127  138 1   
   133  128  129 ar  
   134  128  130 ar  
   135  129  131 ar  
   136  129  139 1   
   137  130  132 ar  
   138  130  140 1   
   139  131  133 ar  
   140  131  141 1   
   141  132  133 ar  
   142  132  142 1   
   143  133  134 1   
   144  134  143 1   
   145  144  145 1   
   146  144  153 1   
   147  145  146 1   
   148  145  148 1   
   149  145  154 1   
   150  146  147 2   
   151  146  159 1   
   152  148  149 1   
   153  148  155 1   
   154  148  156 1   
   155  149  150 1   
   156  149  157 1   
   157  149  158 1   
   158  150  151 1   
   159  150  152 1   
   160  159  160 1   
   161  159  168 1   
   162  160  161 1   
   163  160  163 1   
   164  160  169 1   
   165  161  162 2   
   166  161  174 1   
   167  163  164 1   
   168  163  170 1   
   169  163  171 1   
   170  164  165 1   
   171  164  172 1   
   172  164  173 1   
   173  165  166 1   
   174  165  167 1   
   175  174  175 1   
   176  174  179 1   
   177  175  176 1   
   178  175  177 1   
   179  175  178 1   
   180  181  182 1   
   181  181  183 1   
   182  184  185 1   
   183  184  186 1   
   184  187  188 1   
   185  187  189 1   
@<TRIPOS>SUBSTRUCTURE
     1 MOL         1 TEMP              0 ****  ****    0 ROOT
