@<TRIPOS>MOLECULE
MOL
  192   187     1     0     0
SMALL
resp


@<TRIPOS>ATOM
      1 C1         11.7480    5.2800   -3.4260 c3        1 MOL     -0.366295
      2 C2         11.7980    4.1910   -2.3570 c         1 MOL      0.596723
      3 O1         12.8030    3.4840   -2.2050 o         1 MOL     -0.569577
      4 H1         11.5770    6.2470   -2.9530 hc        1 MOL      0.105520
      5 H2         12.6950    5.3030   -3.9660 hc        1 MOL      0.105520
      6 H3         10.9370    5.0690   -4.1230 hc        1 MOL      0.105520
      7 N1         10.7750    4.1340   -1.5000 n         1 MOL     -0.244986
      8 C3         10.6770    3.3650   -0.2320 c3        1 MOL     -0.043771
      9 C4          9.4170    2.4420   -0.2890 c         1 MOL      0.304203
     10 O2          8.3950    2.8590   -0.7520 o         1 MOL     -0.542814
     11 C5         10.7990    4.2660    1.0390 c3        1 MOL     -0.061382
     12 C6          9.8920    5.4660    1.1100 c         1 MOL      0.713135
     13 O3         10.2250    6.5360    1.5820 o         1 MOL     -0.680741
     14 O4          8.7470    5.3380    0.5410 o         1 MOL     -0.680741
     15 H4         10.0600    4.8420   -1.5860 hn        1 MOL      0.099292
     16 H5         11.5170    2.6610   -0.2930 h1        1 MOL      0.051580
     17 H6         11.8360    4.6190    1.0000 hc        1 MOL      0.042912
     18 H7         10.6550    3.6040    1.8940 hc        1 MOL      0.042912
     19 N2          9.6250    1.2130    0.2290 n         1 MOL     -0.144330
     20 C7          8.7000    0.1550   -0.0670 c3        1 MOL     -0.132434
     21 C8          7.5870    0.1090    1.0090 c         1 MOL      0.560905
     22 O5          7.8640   -0.2170    2.1200 o         1 MOL     -0.515771
     23 C9          9.4200   -1.1990   -0.1600 c3        1 MOL     -0.414964
     24 C10         8.4470   -2.0550   -0.8780 c3        1 MOL      0.562731
     25 C11         9.0880   -3.3780   -1.2960 c3        1 MOL     -0.128831
     26 C12         8.0670   -4.3130   -1.9500 c3        1 MOL     -0.131440
     27 N3          7.4820   -3.9260   -3.2700 n4        1 MOL     -0.322384
     28 H8         10.5560    0.9940    0.5530 hn        1 MOL      0.255542
     29 H9          8.3080    0.4060   -1.0510 h1        1 MOL      0.122338
     30 H10         9.6410   -1.6520    0.8080 hc        1 MOL      0.125171
     31 H11        10.3770   -1.1670   -0.6830 hc        1 MOL      0.125171
     32 H12         8.2780   -1.5720   -1.8390 hc        1 MOL     -0.120678
     33 H13         7.4510   -2.1180   -0.4330 hc        1 MOL     -0.120678
     34 H14         9.4070   -3.8650   -0.3750 hc        1 MOL      0.049935
     35 H15         9.9250   -3.2580   -1.9890 hc        1 MOL      0.049935
     36 H16         7.2740   -4.4600   -1.2140 hx        1 MOL      0.145982
     37 H17         8.6600   -5.2140   -2.0400 hx        1 MOL      0.145982
     38 H18         6.7460   -3.2280   -3.3380 hn        1 MOL      0.299134
     39 H19         8.2090   -3.5830   -3.8770 hn        1 MOL      0.299134
     40 H20         7.1910   -4.8050   -3.6550 hn        1 MOL      0.299134
     41 N4          6.3350    0.3440    0.5730 n         1 MOL     -0.252855
     42 C13         5.1200    0.1690    1.3630 c3        1 MOL      0.054342
     43 C14         3.9580   -0.1140    0.4010 c         1 MOL      0.443361
     44 O6          4.0020    0.3290   -0.7450 o         1 MOL     -0.541716
     45 C15         4.8470    1.4010    2.2990 c3        1 MOL      0.282140
     46 C16         5.2760    2.7430    1.6910 c         1 MOL      0.588166
     47 O7          6.4340    3.2200    1.7930 o         1 MOL     -0.758224
     48 O8          4.4220    3.2970    0.9900 o         1 MOL     -0.758224
     49 H21         6.3030    0.7610   -0.3490 hn        1 MOL      0.083864
     50 H22         5.2410   -0.7100    1.9920 h1        1 MOL      0.045016
     51 H23         5.4160    1.2900    3.2190 hc        1 MOL     -0.045086
     52 H24         3.8250    1.4540    2.6580 hc        1 MOL     -0.045086
     53 N5          2.7980   -0.7180    0.7790 n         1 MOL     -0.412696
     54 C17         2.5300   -1.4380    2.0470 c3        1 MOL     -0.110287
     55 C18         2.7750   -2.9580    2.1510 c         1 MOL      0.625940
     56 O9          2.9760   -3.6270    1.1160 o         1 MOL     -0.618116
     57 H25         2.1100   -0.7620    0.0420 hn        1 MOL      0.336020
     58 H26         1.4730   -1.3060    2.2640 h1        1 MOL      0.086293
     59 H27         3.1540   -0.9420    2.7960 h1        1 MOL      0.086293
     60 N6          2.5820   -3.5120    3.3280 n         1 MOL     -0.294006
     61 C19         2.9320   -4.9550    3.5830 c3        1 MOL      0.053652
     62 C20         1.8850   -5.9160    2.9390 c         1 MOL      0.271017
     63 O10         2.2090   -7.1540    2.8770 o         1 MOL     -0.504837
     64 C21         2.7950   -5.3220    5.0580 c3        1 MOL      0.008940
     65 C22         3.4100   -4.3340    6.0840 c         1 MOL      0.627872
     66 O11         4.1900   -4.8100    6.9030 o         1 MOL     -0.637160
     67 O12         3.2540   -3.0660    6.0040 o         1 MOL     -0.637160
     68 H28         2.6570   -2.9580    4.1650 hn        1 MOL      0.114346
     69 H29         3.9340   -5.1260    3.2200 h1        1 MOL      0.074960
     70 H30         3.2250   -6.3150    5.2060 hc        1 MOL     -0.003187
     71 H31         1.7300   -5.3960    5.2680 hc        1 MOL     -0.003187
     72 N7          0.6560   -5.4460    2.6050 n         1 MOL     -0.015282
     73 C23        -0.3410   -6.2340    1.9370 c3        1 MOL     -0.141426
     74 C24        -0.5010   -5.9700    0.4560 c         1 MOL      0.613864
     75 O13        -1.3360   -6.6490   -0.1410 o         1 MOL     -0.573914
     76 H32         0.4900   -4.4780    2.8260 hn        1 MOL      0.137227
     77 H33        -1.2820   -6.0120    2.4440 h1        1 MOL      0.079456
     78 H34        -0.1310   -7.2920    2.0590 h1        1 MOL      0.079456
     79 N8          0.2990   -5.0210   -0.0780 n         1 MOL     -0.303178
     80 C25         0.2030   -4.4510   -1.4770 c3        1 MOL     -0.215868
     81 C26         0.0330   -2.9360   -1.3940 c         1 MOL      0.657874
     82 O14         0.4520   -2.2070   -0.4280 o         1 MOL     -0.533776
     83 C27         1.3000   -4.9180   -2.4300 c3        1 MOL      0.327917
     84 C28         2.7650   -4.8360   -1.9680 c3        1 MOL     -0.507268
     85 O15         1.1840   -6.3180   -2.6540 oh        1 MOL     -0.559149
     86 H35         1.0300   -4.6800    0.5320 hn        1 MOL      0.178988
     87 H36        -0.7540   -4.7960   -1.8600 h1        1 MOL      0.098985
     88 H37         1.2140   -4.4910   -3.4260 h1        1 MOL      0.011058
     89 H38         0.2660   -6.4710   -2.8860 ho        1 MOL      0.363342
     90 H39         3.3080   -5.4050   -2.7230 hc        1 MOL      0.152386
     91 H40         3.0830   -3.8190   -1.7120 hc        1 MOL      0.152386
     92 H41         2.8790   -5.3210   -1.0010 hc        1 MOL      0.152386
     93 N9         -0.5230   -2.4280   -2.4800 n         1 MOL     -0.441798
     94 C29        -0.8630   -0.9950   -2.6530 c3        1 MOL     -0.076441
     95 C30        -2.2560   -0.6410   -2.0270 c         1 MOL      0.459232
     96 O16        -2.4300    0.5740   -1.7940 o         1 MOL     -0.538840
     97 C31        -0.8060   -0.6000   -4.1070 c3        1 MOL      0.057610
     98 C32         0.5870   -0.9680   -4.6530 c3        1 MOL     -0.040991
     99 C33        -0.9750    0.8840   -4.4270 c3        1 MOL     -0.335042
    100 C34         1.7850   -0.3840   -3.9510 c3        1 MOL     -0.402457
    101 H42        -1.0600   -3.0810   -3.0380 hn        1 MOL      0.252489
    102 H43        -0.1580   -0.3890   -2.0860 h1        1 MOL      0.157895
    103 H44        -1.6030   -1.1730   -4.6030 hc        1 MOL      0.036586
    104 H45         0.6000   -0.5200   -5.6460 hc        1 MOL      0.027564
    105 H46         0.7220   -2.0310   -4.8660 hc        1 MOL      0.027564
    106 H47        -2.0450    1.0110   -4.3000 hc        1 MOL      0.111195
    107 H48        -0.2750    1.5150   -3.8790 hc        1 MOL      0.111195
    108 H49        -0.9140    1.0970   -5.4900 hc        1 MOL      0.111195
    109 H50         1.8370   -0.7140   -2.9070 hc        1 MOL      0.111021
    110 H51         2.6780   -0.5530   -4.5430 hc        1 MOL      0.111021
    111 H52         1.6390    0.6840   -3.8070 hc        1 MOL      0.111021
    112 N10        -3.1120   -1.5620   -1.9310 n         1 MOL     -0.265800
    113 C35        -4.4010   -1.5900   -0.9890 c3        1 MOL     -0.174154
    114 C36        -5.5890   -2.1590   -1.6600 c         1 MOL      0.701438
    115 O17        -5.4190   -2.9560   -2.5690 o         1 MOL     -0.559316
    116 C37        -4.0970   -2.2850    0.3570 c3        1 MOL      0.231468
    117 C38        -3.8610   -3.8010    0.2190 c3        1 MOL     -0.232815
    118 O18        -2.9360   -1.6890    0.9460 oh        1 MOL     -0.569476
    119 H53        -2.9570   -2.4110   -2.4400 hn        1 MOL      0.256045
    120 H54        -4.5490   -0.5270   -0.7690 h1        1 MOL      0.118006
    121 H55        -4.8750   -2.1560    1.1040 h1        1 MOL      0.047094
    122 H56        -3.2140   -0.8250    1.2720 ho        1 MOL      0.402441
    123 H57        -3.2350   -4.0810   -0.6270 hc        1 MOL      0.074795
    124 H58        -3.4440   -4.2520    1.1270 hc        1 MOL      0.074795
    125 H59        -4.7720   -4.3970    0.1930 hc        1 MOL      0.074795
    126 N11        -6.8120   -1.8010   -1.2440 n         1 MOL     -0.571650
    127 C39        -8.0480   -2.3600   -1.9100 c3        1 MOL     -0.070636
    128 C40        -9.1420   -1.2760   -1.9380 c         1 MOL      0.625590
    129 O19        -9.6050   -0.8100   -2.9730 o         1 MOL     -0.560289
    130 C41        -8.5460   -3.7400   -1.3760 c3        1 MOL      0.229846
    131 C42        -9.8230   -4.3020   -1.9890 c3        1 MOL     -0.456647
    132 O20        -8.7910   -3.5580   -0.0070 oh        1 MOL     -0.618034
    133 H60        -6.9350   -1.3210   -0.3580 hn        1 MOL      0.288943
    134 H61        -7.8520   -2.4520   -2.9740 h1        1 MOL      0.135858
    135 H62        -7.8030   -4.5440   -1.4170 h1        1 MOL      0.081552
    136 H63        -8.6220   -4.4330    0.3640 ho        1 MOL      0.407698
    137 H64       -10.0940   -5.2260   -1.4870 hc        1 MOL      0.129858
    138 H65       -10.6890   -3.6330   -2.0010 hc        1 MOL      0.129858
    139 H66        -9.5120   -4.6530   -2.9750 hc        1 MOL      0.129858
    140 N12        -9.4020   -0.6190   -0.7980 n         1 MOL     -0.344446
    141 C43       -10.2290    0.5810   -0.5300 c3        1 MOL     -0.047037
    142 C44        -9.6270    1.5310    0.5250 c         1 MOL      0.419306
    143 O21        -9.1990    1.0310    1.5260 o         1 MOL     -0.473886
    144 C45       -11.6920    0.2520   -0.1820 c3        1 MOL     -0.228626
    145 C46       -12.5770    1.4800   -0.2860 c3        1 MOL      0.241971
    146 C47       -14.0450    1.2500    0.0640 c3        1 MOL     -0.244155
    147 C48       -14.6860    2.6540   -0.0070 c3        1 MOL      0.272282
    148 N13       -16.1660    2.6830    0.0690 n4        1 MOL     -0.392587
    149 H67        -9.0180   -1.0810    0.0170 hn        1 MOL      0.268649
    150 H68       -10.3060    1.1490   -1.4560 h1        1 MOL      0.079221
    151 H69       -11.6820    0.0510    0.8880 hc        1 MOL      0.102915
    152 H70       -11.9920   -0.6500   -0.7040 hc        1 MOL      0.102915
    153 H71       -12.4990    1.9510   -1.2670 hc        1 MOL     -0.036992
    154 H72       -12.2220    2.2750    0.3810 hc        1 MOL     -0.036992
    155 H73       -14.2030    0.9400    1.0930 hc        1 MOL      0.064432
    156 H74       -14.4940    0.6120   -0.6990 hc        1 MOL      0.064432
    157 H75       -14.3440    3.1400   -0.9240 hx        1 MOL      0.020961
    158 H76       -14.2680    3.2780    0.7730 hx        1 MOL      0.020961
    159 H77       -16.4570    2.4040    0.9950 hn        1 MOL      0.280537
    160 H78       -16.5770    3.5750   -0.1530 hn        1 MOL      0.280537
    161 H79       -16.5060    2.0430   -0.6390 hn        1 MOL      0.280537
    162 N14        -9.6830    2.8830    0.4400 n         1 MOL     -0.157476
    163 C49        -9.2180    3.8000    1.4840 c3        1 MOL      0.110316
    164 C50        -7.6480    3.7790    1.6500 c         1 MOL      0.417924
    165 O22        -7.2200    3.3920    2.7160 o         1 MOL     -0.498824
    166 C51        -9.7820    5.1140    1.2350 c3        1 MOL     -0.202316
    167 C52        -9.8260    6.0110    2.4240 c3        1 MOL     -0.221968
    168 C53       -10.4040    7.3710    2.1030 c         1 MOL      0.686220
    169 O23       -11.3200    7.9080    2.8300 o         1 MOL     -0.652300
    170 O24        -9.8310    8.0950    1.2190 o         1 MOL     -0.652300
    171 H80       -10.0560    3.2780   -0.4170 hn        1 MOL      0.190477
    172 H81        -9.5920    3.4830    2.4610 h1        1 MOL      0.042872
    173 H82       -10.7410    5.0730    0.7180 hc        1 MOL      0.048871
    174 H83        -9.1700    5.5840    0.4690 hc        1 MOL      0.048871
    175 H84        -8.8050    6.1490    2.7680 hc        1 MOL      0.082016
    176 H85       -10.4410    5.6130    3.2330 hc        1 MOL      0.082016
    177 N15        -6.7800    4.0870    0.6080 n         1 MOL     -0.411284
    178 C54        -7.0170    3.9980   -0.8050 c3        1 MOL      0.200779
    179 H86        -6.9390    4.9910   -1.2480 h1        1 MOL     -0.017820
    180 H87        -6.2760    3.3400   -1.2580 h1        1 MOL     -0.017820
    181 H88        -8.0170    3.5990   -0.9810 h1        1 MOL     -0.017820
    182 H89        -5.8240    4.0380    0.9220 hn        1 MOL      0.298556
    183 Ca1         6.4630    4.6100   -0.3810 Ca        1 MOL      1.741225
    184 O25         4.0940    5.3770   -1.3420 oh        1 MOL     -0.840381
    185 H90         3.7750    6.0080   -0.6890 ho        1 MOL      0.418734
    186 H91         3.5130    4.6170   -1.2420 ho        1 MOL      0.418734
    187 O26         5.5960    2.3410   -2.0000 oh        1 MOL     -0.840381
    188 H92         5.1150    1.5210   -1.9060 ho        1 MOL      0.418734
    189 H93         5.5930    2.5150   -2.9400 ho        1 MOL      0.418734
    190 O27         6.2240    6.5970    1.2230 oh        1 MOL     -0.840381
    191 H94         6.9580    6.7970    1.8100 ho        1 MOL      0.418734
    192 H95         5.4460    6.6450    1.7880 ho        1 MOL      0.418734
@<TRIPOS>BOND
     1    1    2 1   
     2    1    4 1   
     3    1    5 1   
     4    1    6 1   
     5    2    3 2   
     6    2    7 1   
     7    7    8 1   
     8    7   15 1   
     9    8    9 1   
    10    8   11 1   
    11    8   16 1   
    12    9   10 2   
    13    9   19 1   
    14   11   12 1   
    15   11   17 1   
    16   11   18 1   
    17   12   13 1   
    18   12   14 1   
    19   19   20 1   
    20   19   28 1   
    21   20   21 1   
    22   20   23 1   
    23   20   29 1   
    24   21   22 2   
    25   21   41 1   
    26   23   24 1   
    27   23   30 1   
    28   23   31 1   
    29   24   25 1   
    30   24   32 1   
    31   24   33 1   
    32   25   26 1   
    33   25   34 1   
    34   25   35 1   
    35   26   27 1   
    36   26   36 1   
    37   26   37 1   
    38   27   38 1   
    39   27   39 1   
    40   27   40 1   
    41   41   42 1   
    42   41   49 1   
    43   42   43 1   
    44   42   45 1   
    45   42   50 1   
    46   43   44 2   
    47   43   53 1   
    48   45   46 1   
    49   45   51 1   
    50   45   52 1   
    51   46   47 1   
    52   46   48 1   
    53   53   54 1   
    54   53   57 1   
    55   54   55 1   
    56   54   58 1   
    57   54   59 1   
    58   55   56 2   
    59   55   60 1   
    60   60   61 1   
    61   60   68 1   
    62   61   62 1   
    63   61   64 1   
    64   61   69 1   
    65   62   63 2   
    66   62   72 1   
    67   64   65 1   
    68   64   70 1   
    69   64   71 1   
    70   65   66 1   
    71   65   67 1   
    72   72   73 1   
    73   72   76 1   
    74   73   74 1   
    75   73   77 1   
    76   73   78 1   
    77   74   75 2   
    78   74   79 1   
    79   79   80 1   
    80   79   86 1   
    81   80   81 1   
    82   80   83 1   
    83   80   87 1   
    84   81   82 2   
    85   81   93 1   
    86   83   84 1   
    87   83   85 1   
    88   83   88 1   
    89   84   90 1   
    90   84   91 1   
    91   84   92 1   
    92   85   89 1   
    93   93   94 1   
    94   93  101 1   
    95   94   95 1   
    96   94   97 1   
    97   94  102 1   
    98   95   96 2   
    99   95  112 1   
   100   97   98 1   
   101   97   99 1   
   102   97  103 1   
   103   98  100 1   
   104   98  104 1   
   105   98  105 1   
   106   99  106 1   
   107   99  107 1   
   108   99  108 1   
   109  100  109 1   
   110  100  110 1   
   111  100  111 1   
   112  112  113 1   
   113  112  119 1   
   114  113  114 1   
   115  113  116 1   
   116  113  120 1   
   117  114  115 2   
   118  114  126 1   
   119  116  117 1   
   120  116  118 1   
   121  116  121 1   
   122  117  123 1   
   123  117  124 1   
   124  117  125 1   
   125  118  122 1   
   126  126  127 1   
   127  126  133 1   
   128  127  128 1   
   129  127  130 1   
   130  127  134 1   
   131  128  129 2   
   132  128  140 1   
   133  130  131 1   
   134  130  132 1   
   135  130  135 1   
   136  131  137 1   
   137  131  138 1   
   138  131  139 1   
   139  132  136 1   
   140  140  141 1   
   141  140  149 1   
   142  141  142 1   
   143  141  144 1   
   144  141  150 1   
   145  142  143 2   
   146  142  162 1   
   147  144  145 1   
   148  144  151 1   
   149  144  152 1   
   150  145  146 1   
   151  145  153 1   
   152  145  154 1   
   153  146  147 1   
   154  146  155 1   
   155  146  156 1   
   156  147  148 1   
   157  147  157 1   
   158  147  158 1   
   159  148  159 1   
   160  148  160 1   
   161  148  161 1   
   162  162  163 1   
   163  162  171 1   
   164  163  164 1   
   165  163  166 1   
   166  163  172 1   
   167  164  165 2   
   168  164  177 1   
   169  166  167 1   
   170  166  173 1   
   171  166  174 1   
   172  167  168 1   
   173  167  175 1   
   174  167  176 1   
   175  168  169 1   
   176  168  170 1   
   177  177  178 1   
   178  177  182 1   
   179  178  179 1   
   180  178  180 1   
   181  178  181 1   
   182  184  185 1   
   183  184  186 1   
   184  187  188 1   
   185  187  189 1   
   186  190  191 1   
   187  190  192 1   
@<TRIPOS>SUBSTRUCTURE
     1 MOL         1 TEMP              0 ****  ****    0 ROOT
