@<TRIPOS>MOLECULE
MOL
  188   182     1     0     0
SMALL
resp


@<TRIPOS>ATOM
      1 C1          5.1650    3.2550    2.0800 c3        1 MOL     -0.370326
      2 C2          5.7720    2.6640    0.8660 c         1 MOL      0.705240
      3 O1          5.3030    1.6720    0.2880 o         1 MOL     -0.588518
      4 H1          5.8680    3.1800    2.9100 hc        1 MOL      0.093143
      5 H2          4.9320    4.3040    1.8970 hc        1 MOL      0.093143
      6 H3          4.2510    2.7170    2.3290 hc        1 MOL      0.093143
      7 N1          7.0360    2.9550    0.5870 n         1 MOL     -0.579427
      8 C3          7.8610    2.4100   -0.5090 c3        1 MOL      0.242231
      9 C4          8.2470    0.9230   -0.2510 c         1 MOL      0.348460
     10 O2          8.6470    0.2410   -1.2250 o         1 MOL     -0.411122
     11 C5          7.2320    2.5050   -1.9590 c3        1 MOL     -0.270504
     12 C6          8.2150    2.4060   -3.1050 c         1 MOL      0.680431
     13 O3          9.4680    2.5620   -3.0320 o         1 MOL     -0.611864
     14 O4          7.7200    2.1880   -4.2390 o         1 MOL     -0.611864
     15 H4          7.5240    3.6990    1.0610 hn        1 MOL      0.286574
     16 H5          8.8450    2.8640   -0.5610 h1        1 MOL      0.003150
     17 H6          6.8190    3.5120   -1.9750 hc        1 MOL      0.084057
     18 H7          6.4670    1.7490   -2.0970 hc        1 MOL      0.084057
     19 N2          7.9710    0.4150    0.9820 n         1 MOL     -0.446977
     20 C7          8.2060   -0.9610    1.3820 c3        1 MOL     -0.022182
     21 C8          7.2680   -2.0540    0.8400 c         1 MOL      0.528723
     22 O5          7.6360   -3.2400    0.9400 o         1 MOL     -0.546203
     23 C9          8.3630   -1.0500    2.9380 c3        1 MOL     -0.094171
     24 C10         9.5370   -0.1520    3.3470 c3        1 MOL      0.234454
     25 C11         9.9300   -0.3070    4.7950 c3        1 MOL     -0.144044
     26 C12        11.1620    0.4840    4.9720 c3        1 MOL      0.157660
     27 N3         11.7500    0.1170    6.2990 n4        1 MOL     -0.209268
     28 H8          7.6150    1.0520    1.6730 hn        1 MOL      0.304997
     29 H9          9.1140   -1.2960    0.8750 h1        1 MOL      0.113395
     30 H10         8.5670   -2.0810    3.1880 hc        1 MOL      0.037324
     31 H11         7.4690   -0.7260    3.4710 hc        1 MOL      0.037324
     32 H12         9.2590    0.8890    3.1790 hc        1 MOL     -0.041509
     33 H13        10.4380   -0.3470    2.7740 hc        1 MOL     -0.041509
     34 H14        10.1340   -1.3380    5.0450 hc        1 MOL      0.035887
     35 H15         9.0970   -0.0180    5.4340 hc        1 MOL      0.035887
     36 H16        10.8170    1.5000    5.1190 hx        1 MOL      0.033393
     37 H17        11.9540    0.4650    4.2220 hx        1 MOL      0.033393
     38 H18        12.5290    0.7190    6.5400 hn        1 MOL      0.209202
     39 H19        11.0560    0.3090    7.0180 hn        1 MOL      0.209202
     40 H20        12.0850   -0.8330    6.2530 hn        1 MOL      0.209202
     41 N4          6.1530   -1.6760    0.1590 n         1 MOL     -0.471535
     42 C13         5.0880   -2.5340   -0.4370 c3        1 MOL      0.334192
     43 C14         4.8960   -2.0190   -1.8340 c         1 MOL      0.319160
     44 O6          5.1210   -0.8590   -2.0800 o         1 MOL     -0.337719
     45 C15         3.7890   -2.4640    0.3660 c3        1 MOL     -0.304627
     46 C16         2.7220   -3.4710   -0.1980 c         1 MOL      0.770361
     47 O7          1.8700   -2.9950   -1.0080 o         1 MOL     -0.761226
     48 O8          2.7530   -4.7290    0.0970 o         1 MOL     -0.761226
     49 H21         6.0460   -0.6950   -0.0930 hn        1 MOL      0.299405
     50 H22         5.3730   -3.5830   -0.5100 h1        1 MOL     -0.005358
     51 H23         3.2850   -1.4990    0.3390 hc        1 MOL      0.065573
     52 H24         3.8500   -2.7530    1.4150 hc        1 MOL      0.065573
     53 N5          4.4210   -2.9010   -2.7800 n         1 MOL     -0.264144
     54 C17         4.1830   -2.6000   -4.2130 c3        1 MOL     -0.399525
     55 C18         3.0070   -1.6640   -4.3690 c         1 MOL      0.542647
     56 O9          2.9680   -1.0100   -5.4310 o         1 MOL     -0.539510
     57 H25         4.3790   -3.8890   -2.5470 hn        1 MOL      0.280782
     58 H26         3.8880   -3.5000   -4.7560 h1        1 MOL      0.191676
     59 H27         4.9500   -1.9870   -4.6870 h1        1 MOL      0.191676
     60 N6          2.0490   -1.6100   -3.4600 n         1 MOL     -0.322280
     61 C19         0.8790   -0.7090   -3.4780 c3        1 MOL     -0.213287
     62 C20         1.0440    0.7010   -2.8800 c         1 MOL      0.661489
     63 O10         0.1850    1.5660   -3.0100 o         1 MOL     -0.546911
     64 C21        -0.3230   -1.3400   -2.8160 c3        1 MOL     -0.365565
     65 C22        -0.7710   -2.5940   -3.5240 c         1 MOL      0.896171
     66 N7         -1.1130   -2.5700   -4.8020 n         1 MOL     -0.855674
     67 O11        -0.9600   -3.5970   -2.8290 o         1 MOL     -0.721408
     68 H28         2.1550   -2.1620   -2.6210 hn        1 MOL      0.266690
     69 H29         0.5840   -0.4950   -4.5130 h1        1 MOL      0.107213
     70 H30        -1.1370   -0.6280   -2.9330 hc        1 MOL      0.136920
     71 H31        -0.1720   -1.4530   -1.7410 hc        1 MOL      0.136920
     72 H32        -1.0820   -1.6550   -5.2310 hn        1 MOL      0.392639
     73 H33        -1.3990   -3.4000   -5.2990 hn        1 MOL      0.392639
     74 N8          2.2010    0.9540   -2.2270 n         1 MOL     -0.317839
     75 C23         2.5960    2.3020   -1.9070 c3        1 MOL     -0.096798
     76 C24         1.6360    2.9210   -0.8580 c         1 MOL      0.505274
     77 O12         1.5450    2.3860    0.2470 o         1 MOL     -0.512930
     78 H34         2.9000    0.2590   -2.0290 hn        1 MOL      0.279258
     79 H35         2.6420    2.8920   -2.8230 h1        1 MOL      0.072134
     80 H36         3.6050    2.2870   -1.4860 h1        1 MOL      0.072134
     81 N9          0.8600    3.9400   -1.2160 n         1 MOL     -0.495178
     82 C25        -0.3460    4.3710   -0.4280 c3        1 MOL      0.274929
     83 C26        -1.3960    3.2320   -0.2340 c         1 MOL      0.516088
     84 O13        -1.1540    2.0460   -0.5210 o         1 MOL     -0.413744
     85 C27         0.0910    5.2620    0.8080 c3        1 MOL     -0.387495
     86 C28        -0.7820    6.4650    1.0290 ca        1 MOL      0.231621
     87 C29        -1.0150    7.3690   -0.0260 ca        1 MOL     -0.279795
     88 C30        -1.3060    6.7370    2.2860 ca        1 MOL     -0.279795
     89 C31        -1.6480    8.6120    0.1890 ca        1 MOL     -0.165749
     90 C32        -1.9970    7.9620    2.5260 ca        1 MOL     -0.165749
     91 C33        -2.2400    8.8480    1.4340 ca        1 MOL      0.214502
     92 O14        -2.7320   10.0450    1.7050 oh        1 MOL     -0.431152
     93 H37         1.0860    4.5200   -2.0160 hn        1 MOL      0.294055
     94 H38        -0.8810    4.9890   -1.1450 h1        1 MOL     -0.000444
     95 H39         1.0280    5.6920    0.4650 hc        1 MOL      0.135287
     96 H40         0.3230    4.6290    1.6590 hc        1 MOL      0.135287
     97 H41        -0.6460    7.1150   -1.0120 ha        1 MOL      0.168085
     98 H42        -1.1020    6.0720    3.1200 ha        1 MOL      0.168085
     99 H43        -1.6990    9.3510   -0.6020 ha        1 MOL      0.138732
    100 H44        -2.4090    8.2440    3.4870 ha        1 MOL      0.138732
    101 H45        -3.0410   10.1000    2.6090 ho        1 MOL      0.348372
    102 N10        -2.5300    3.5410    0.3890 n         1 MOL     -0.574710
    103 C34        -3.5080    2.6400    0.9580 c3        1 MOL     -0.062589
    104 C35        -4.5640    2.3050   -0.1300 c         1 MOL      0.519932
    105 O15        -4.8980    1.1380   -0.3210 o         1 MOL     -0.432854
    106 C36        -4.0310    3.1320    2.3260 c3        1 MOL      0.042709
    107 C37        -2.9710    3.5400    3.3860 c3        1 MOL     -0.117752
    108 C38        -4.9860    2.0810    2.9450 c3        1 MOL     -0.445387
    109 C39        -1.7670    2.5100    3.3530 c3        1 MOL      0.230252
    110 H46        -2.7170    4.5180    0.5270 hn        1 MOL      0.275232
    111 H47        -3.0460    1.6780    1.1650 h1        1 MOL      0.102449
    112 H48        -4.5640    4.0580    2.1400 hc        1 MOL      0.013883
    113 H49        -3.3760    3.4610    4.3990 hc        1 MOL      0.015020
    114 H50        -2.4920    4.5090    3.2750 hc        1 MOL      0.015020
    115 H51        -4.4480    1.1740    3.2340 hc        1 MOL      0.138785
    116 H52        -5.4940    2.4570    3.8380 hc        1 MOL      0.138785
    117 H53        -5.7750    2.0300    2.2030 hc        1 MOL      0.138785
    118 H54        -2.0130    1.4900    3.6100 hc        1 MOL     -0.037300
    119 H55        -1.1400    2.5810    2.4600 hc        1 MOL     -0.037300
    120 H56        -1.1260    2.7620    4.1930 hc        1 MOL     -0.037300
    121 N11        -4.9860    3.3740   -0.8240 n         1 MOL     -0.388258
    122 C40        -5.8820    3.3720   -1.9810 c3        1 MOL      0.234810
    123 C41        -6.9820    2.2800   -1.9020 c         1 MOL      0.132789
    124 O16        -7.2570    1.5130   -2.8960 o         1 MOL     -0.464802
    125 C42        -6.5140    4.7600   -2.1780 c3        1 MOL      0.225169
    126 O17        -5.5960    5.7620   -2.5590 oh        1 MOL     -0.597804
    127 H57        -4.6470    4.2540   -0.4470 hn        1 MOL      0.241421
    128 H58        -5.3700    3.1920   -2.9230 h1        1 MOL      0.092184
    129 H59        -7.0530    5.0700   -1.2920 h1        1 MOL     -0.011261
    130 H60        -7.1970    4.6660   -3.0180 h1        1 MOL     -0.011261
    131 H61        -5.9870    6.5770   -2.2290 ho        1 MOL      0.401416
    132 N12        -7.7680    2.1210   -0.8410 n         1 MOL     -0.144690
    133 C43        -9.0110    1.3560   -0.6610 c3        1 MOL      0.133006
    134 C44        -8.8320   -0.1910   -0.8840 c         1 MOL      0.470426
    135 O18        -9.7100   -0.8290   -1.4130 o         1 MOL     -0.497938
    136 C45       -10.1080    2.0050   -1.5590 c3        1 MOL     -0.510340
    137 H62        -7.5530    2.7790   -0.1020 hn        1 MOL      0.169740
    138 H63        -9.2400    1.4400    0.4010 h1        1 MOL      0.044048
    139 H64       -11.0120    1.4530   -1.3200 hc        1 MOL      0.153187
    140 H65       -10.2500    3.0750   -1.4070 hc        1 MOL      0.153187
    141 H66        -9.8490    1.9010   -2.6120 hc        1 MOL      0.153187
    142 N13        -7.7300   -0.7780   -0.3740 n         1 MOL     -0.177972
    143 C46        -7.6350   -2.1880    0.0170 c3        1 MOL     -0.046060
    144 C47        -6.7160   -2.5070    1.2270 c         1 MOL      0.650854
    145 O19        -6.0420   -1.6230    1.8150 o         1 MOL     -0.481333
    146 C48        -7.1380   -3.0580   -1.1610 c3        1 MOL     -0.152788
    147 H67        -7.1220   -0.1760    0.1670 hn        1 MOL      0.050749
    148 H68        -8.5990   -2.6080    0.2820 h1        1 MOL      0.041552
    149 H69        -6.0680   -3.0390   -1.3740 hc        1 MOL      0.066084
    150 H70        -7.3750   -4.1080   -0.9810 hc        1 MOL      0.066084
    151 H71        -7.6750   -2.7850   -2.0670 hc        1 MOL      0.066084
    152 N14        -6.7730   -3.8050    1.5660 n         1 MOL     -0.578413
    153 C49        -6.0480   -4.4220    2.7240 c3        1 MOL     -0.218576
    154 C50        -6.3060   -3.7820    4.1320 c         1 MOL      0.415557
    155 O20        -5.5000   -3.9350    5.0660 o         1 MOL     -0.506643
    156 C51        -4.5170   -4.6400    2.3980 c3        1 MOL      0.507093
    157 C52        -4.5180   -5.1570    0.9620 c3        1 MOL     -0.255333
    158 C53        -3.1970   -5.8640    0.8520 c         1 MOL      0.665736
    159 O21        -2.1240   -5.4670    1.2810 o         1 MOL     -0.698144
    160 O22        -3.3240   -7.0700    0.5900 o         1 MOL     -0.698144
    161 H72        -7.1500   -4.4240    0.8700 hn        1 MOL      0.370933
    162 H73        -6.5800   -5.3630    2.8130 h1        1 MOL      0.132903
    163 H74        -4.0620   -5.3190    3.1190 hc        1 MOL     -0.050980
    164 H75        -3.9220   -3.7240    2.3760 hc        1 MOL     -0.050980
    165 H76        -4.6580   -4.3490    0.2440 hc        1 MOL     -0.000847
    166 H77        -5.2960   -5.9240    0.8650 hc        1 MOL     -0.000847
    167 N15        -7.4950   -3.1420    4.2700 n         1 MOL     -0.285981
    168 C54        -7.7290   -2.1780    5.3270 c3        1 MOL     -0.065857
    169 H78        -6.9930   -2.3220    6.1190 h1        1 MOL      0.065427
    170 H79        -7.6370   -1.1680    4.9260 h1        1 MOL      0.065427
    171 H80        -8.7310   -2.3190    5.7340 h1        1 MOL      0.065427
    172 H81        -8.1080   -3.1550    3.4680 hn        1 MOL      0.223721
    173 Ca1         0.0240   -4.8010   -0.2580 Ca        1 MOL      1.746954
    174 O23        -1.3370   -2.6530    0.2500 oh        1 MOL     -0.798125
    175 H82        -2.2320   -2.3500    0.4200 ho        1 MOL      0.396324
    176 H83        -0.7850   -1.9340    0.5640 ho        1 MOL      0.396324
    177 O24         1.1020   -6.2320   -2.3640 oh        1 MOL     -0.798125
    178 H84         0.5220   -6.9980   -2.3560 ho        1 MOL      0.396324
    179 H85         1.7540   -6.4320   -3.0350 ho        1 MOL      0.396324
    180 O25        -1.9420   -6.1690   -1.6980 oh        1 MOL     -0.798125
    181 H86        -2.3760   -6.9160   -1.2780 ho        1 MOL      0.396324
    182 H87        -2.4270   -6.0420   -2.5160 ho        1 MOL      0.396324
    183 O26         0.9040   -6.7990    1.4960 oh        1 MOL     -0.798125
    184 H88         1.4600   -6.4860    2.2010 ho        1 MOL      0.396324
    185 H89         1.4140   -7.4890    1.0710 ho        1 MOL      0.396324
    186 O27         0.6390   -3.9780    2.1940 oh        1 MOL     -0.798125
    187 H90         1.3060   -4.3960    2.7450 ho        1 MOL      0.396324
    188 H91         0.6140   -3.0650    2.4960 ho        1 MOL      0.396324
@<TRIPOS>BOND
     1    1    2 1   
     2    1    4 1   
     3    1    5 1   
     4    1    6 1   
     5    2    3 2   
     6    2    7 1   
     7    7    8 1   
     8    7   15 1   
     9    8    9 1   
    10    8   11 1   
    11    8   16 1   
    12    9   10 2   
    13    9   19 1   
    14   11   12 1   
    15   11   17 1   
    16   11   18 1   
    17   12   13 1   
    18   12   14 1   
    19   19   20 1   
    20   19   28 1   
    21   20   21 1   
    22   20   23 1   
    23   20   29 1   
    24   21   22 2   
    25   21   41 1   
    26   23   24 1   
    27   23   30 1   
    28   23   31 1   
    29   24   25 1   
    30   24   32 1   
    31   24   33 1   
    32   25   26 1   
    33   25   34 1   
    34   25   35 1   
    35   26   27 1   
    36   26   36 1   
    37   26   37 1   
    38   27   38 1   
    39   27   39 1   
    40   27   40 1   
    41   41   42 1   
    42   41   49 1   
    43   42   43 1   
    44   42   45 1   
    45   42   50 1   
    46   43   44 2   
    47   43   53 1   
    48   45   46 1   
    49   45   51 1   
    50   45   52 1   
    51   46   47 1   
    52   46   48 1   
    53   53   54 1   
    54   53   57 1   
    55   54   55 1   
    56   54   58 1   
    57   54   59 1   
    58   55   56 2   
    59   55   60 1   
    60   60   61 1   
    61   60   68 1   
    62   61   62 1   
    63   61   64 1   
    64   61   69 1   
    65   62   63 2   
    66   62   74 1   
    67   64   65 1   
    68   64   70 1   
    69   64   71 1   
    70   65   66 1   
    71   65   67 2   
    72   66   72 1   
    73   66   73 1   
    74   74   75 1   
    75   74   78 1   
    76   75   76 1   
    77   75   79 1   
    78   75   80 1   
    79   76   77 2   
    80   76   81 1   
    81   81   82 1   
    82   81   93 1   
    83   82   83 1   
    84   82   85 1   
    85   82   94 1   
    86   83   84 2   
    87   83  102 1   
    88   85   86 1   
    89   85   95 1   
    90   85   96 1   
    91   86   87 ar  
    92   86   88 ar  
    93   87   89 ar  
    94   87   97 1   
    95   88   90 ar  
    96   88   98 1   
    97   89   91 ar  
    98   89   99 1   
    99   90   91 ar  
   100   90  100 1   
   101   91   92 1   
   102   92  101 1   
   103  102  103 1   
   104  102  110 1   
   105  103  104 1   
   106  103  106 1   
   107  103  111 1   
   108  104  105 2   
   109  104  121 1   
   110  106  107 1   
   111  106  108 1   
   112  106  112 1   
   113  107  109 1   
   114  107  113 1   
   115  107  114 1   
   116  108  115 1   
   117  108  116 1   
   118  108  117 1   
   119  109  118 1   
   120  109  119 1   
   121  109  120 1   
   122  121  122 1   
   123  121  127 1   
   124  122  123 1   
   125  122  125 1   
   126  122  128 1   
   127  123  124 2   
   128  123  132 1   
   129  125  126 1   
   130  125  129 1   
   131  125  130 1   
   132  126  131 1   
   133  132  133 1   
   134  132  137 1   
   135  133  134 1   
   136  133  136 1   
   137  133  138 1   
   138  134  135 2   
   139  134  142 1   
   140  136  139 1   
   141  136  140 1   
   142  136  141 1   
   143  142  143 1   
   144  142  147 1   
   145  143  144 1   
   146  143  146 1   
   147  143  148 1   
   148  144  145 2   
   149  144  152 1   
   150  146  149 1   
   151  146  150 1   
   152  146  151 1   
   153  152  153 1   
   154  152  161 1   
   155  153  154 1   
   156  153  156 1   
   157  153  162 1   
   158  154  155 2   
   159  154  167 1   
   160  156  157 1   
   161  156  163 1   
   162  156  164 1   
   163  157  158 1   
   164  157  165 1   
   165  157  166 1   
   166  158  159 1   
   167  158  160 1   
   168  167  168 1   
   169  167  172 1   
   170  168  169 1   
   171  168  170 1   
   172  168  171 1   
   173  174  175 1   
   174  174  176 1   
   175  177  178 1   
   176  177  179 1   
   177  180  181 1   
   178  180  182 1   
   179  183  184 1   
   180  183  185 1   
   181  186  187 1   
   182  186  188 1   
@<TRIPOS>SUBSTRUCTURE
     1 MOL         1 TEMP              0 ****  ****    0 ROOT
