@<TRIPOS>MOLECULE
MOL
  182   178     1     0     0
SMALL
resp


@<TRIPOS>ATOM
      1 C1         -0.8360   -4.6530    5.5010 c3        1 MOL     -0.350099
      2 C2         -0.6840   -4.0380    4.0600 c         1 MOL      0.871127
      3 O1         -1.3910   -4.3510    3.1060 o         1 MOL     -0.638041
      4 H1          0.1430   -4.7120    5.9750 hc        1 MOL      0.089091
      5 H2         -1.4920   -4.0200    6.0990 hc        1 MOL      0.089091
      6 H3         -1.2650   -5.6520    5.4270 hc        1 MOL      0.089091
      7 N1          0.3990   -3.2870    3.9000 n         1 MOL     -0.697376
      8 C3          0.9860   -2.9820    2.6030 c3        1 MOL      0.111855
      9 C4          1.2890   -4.2720    1.8370 c         1 MOL      0.526374
     10 O2          1.9790   -5.1850    2.3430 o         1 MOL     -0.510466
     11 C5          2.2360   -2.1090    2.9630 c3        1 MOL     -0.106015
     12 C6          2.6360   -1.3990    1.6840 c         1 MOL      0.555931
     13 O3          2.9980   -0.2090    1.6840 o         1 MOL     -0.696602
     14 O4          2.6420   -2.0170    0.5640 o         1 MOL     -0.696602
     15 H4          1.0280   -3.1390    4.6780 hn        1 MOL      0.315447
     16 H5          0.1710   -2.4980    2.0570 h1        1 MOL     -0.032979
     17 H6          3.0150   -2.7870    3.3190 hc        1 MOL      0.091768
     18 H7          2.0460   -1.2560    3.6100 hc        1 MOL      0.091768
     19 N2          0.7830   -4.3680    0.5360 n         1 MOL     -0.250515
     20 C7          0.9910   -5.4640   -0.3680 c3        1 MOL     -0.028073
     21 C8          2.4010   -5.6970   -0.8830 c         1 MOL      0.504882
     22 O5          2.7590   -6.7630   -1.3460 o         1 MOL     -0.538904
     23 C9         -0.0110   -5.5360   -1.4980 c3        1 MOL     -0.120128
     24 C10         0.4160   -4.8390   -2.7990 c3        1 MOL      0.093198
     25 C11        -0.7120   -4.8850   -3.8920 c3        1 MOL     -0.129476
     26 C12        -0.2780   -3.9470   -5.0470 c3        1 MOL      0.183502
     27 N3         -1.1970   -4.0720   -6.2160 n4        1 MOL     -0.287664
     28 H8          0.1580   -3.6120    0.3030 hn        1 MOL      0.256859
     29 H9          0.8610   -6.2810    0.3270 h1        1 MOL      0.113743
     30 H10        -0.8940   -4.9970   -1.1810 hc        1 MOL      0.050637
     31 H11        -0.3280   -6.5770   -1.6450 hc        1 MOL      0.050637
     32 H12         1.2750   -5.3580   -3.2340 hc        1 MOL      0.046797
     33 H13         0.6700   -3.7920   -2.6390 hc        1 MOL      0.046797
     34 H14        -1.6220   -4.4230   -3.5120 hc        1 MOL      0.034059
     35 H15        -0.8710   -5.9180   -4.1940 hc        1 MOL      0.034059
     36 H16         0.7300   -4.2720   -5.3060 hx        1 MOL      0.021927
     37 H17        -0.2830   -2.8830   -4.8170 hx        1 MOL      0.021927
     38 H18        -1.3350   -5.0690   -6.3240 hn        1 MOL      0.286399
     39 H19        -2.0980   -3.7120   -5.9570 hn        1 MOL      0.286399
     40 H20        -0.8630   -3.6680   -7.0810 hn        1 MOL      0.286399
     41 N4          3.1990   -4.5600   -0.9640 n         1 MOL      0.016659
     42 C13         4.4290   -4.2820   -1.6610 c3        1 MOL     -0.025181
     43 C14         5.5340   -3.6400   -0.7670 c         1 MOL      0.382004
     44 O6          6.7480   -3.7610   -1.0320 o         1 MOL     -0.514278
     45 C15         4.1910   -3.3150   -2.8210 c3        1 MOL     -0.200131
     46 C16         3.3790   -2.0790   -2.4440 c         1 MOL      0.683876
     47 O7          2.1540   -1.9840   -2.4740 o         1 MOL     -0.690849
     48 O8          3.9840   -1.1160   -1.9130 o         1 MOL     -0.690849
     49 H21         2.7930   -3.6960   -0.6190 hn        1 MOL     -0.441192
     50 H22         4.7760   -5.2240   -2.0810 h1        1 MOL      0.109484
     51 H23         3.6920   -3.8210   -3.6500 hc        1 MOL      0.060685
     52 H24         5.1420   -2.9840   -3.2310 hc        1 MOL      0.060685
     53 N5          5.1670   -3.0120    0.3660 n         1 MOL     -0.130359
     54 C17         6.1180   -2.3740    1.3150 c3        1 MOL     -0.424945
     55 C18         6.7140   -1.0620    0.8660 c         1 MOL      0.768276
     56 O9          7.5430   -0.5430    1.6060 o         1 MOL     -0.593590
     57 H25         4.1930   -2.9490    0.6170 hn        1 MOL      0.305913
     58 H26         6.9610   -3.0490    1.4980 h1        1 MOL      0.158909
     59 H27         5.4550   -2.2110    2.1590 h1        1 MOL      0.158909
     60 N6          6.1610   -0.4000   -0.1230 n         1 MOL     -0.472088
     61 C19         6.7110    0.8640   -0.6550 c3        1 MOL      0.028890
     62 C20         5.5580    1.9000   -0.8620 c         1 MOL      0.751641
     63 O10         4.3890    1.5170   -0.8110 o         1 MOL     -0.602995
     64 C21         7.3970    0.4810   -1.9850 c3        1 MOL     -0.457464
     65 C22         8.6410   -0.3290   -1.8500 c         1 MOL      0.741351
     66 N7          8.8790   -1.2420   -2.7460 n         1 MOL     -0.741276
     67 O11         9.5820   -0.1260   -1.0860 o         1 MOL     -0.533832
     68 H28         5.3020   -0.7400   -0.5310 hn        1 MOL      0.412147
     69 H29         7.4770    1.3720   -0.0760 h1        1 MOL      0.063429
     70 H30         7.6430    1.4370   -2.4590 hc        1 MOL      0.089871
     71 H31         6.7020   -0.1610   -2.5110 hc        1 MOL      0.089871
     72 H32         8.1330   -1.3200   -3.4230 hn        1 MOL      0.346740
     73 H33         9.8030   -1.5990   -2.9650 hn        1 MOL      0.346740
     74 N8          5.9710    3.1950   -1.0540 n         1 MOL     -0.594346
     75 C23         5.0310    4.2700   -1.4550 c3        1 MOL     -0.043068
     76 C24         4.0190    4.4540   -0.2950 c         1 MOL      0.667865
     77 O12         4.4230    4.7470    0.8880 o         1 MOL     -0.514706
     78 H34         6.9390    3.4730   -1.1690 hn        1 MOL      0.386250
     79 H35         4.5580    3.9440   -2.3770 h1        1 MOL      0.073996
     80 H36         5.5410    5.2100   -1.6670 h1        1 MOL      0.073996
     81 N9          2.7380    4.4160   -0.6880 n         1 MOL     -0.891750
     82 C25         1.6700    4.5970    0.2930 c3        1 MOL      0.659650
     83 C26         1.4080    3.3450    1.1680 c         1 MOL      0.307315
     84 O13         1.9710    2.2710    0.8980 o         1 MOL     -0.417706
     85 C27         0.4090    5.1670   -0.4810 c3        1 MOL     -0.373356
     86 C28         0.7290    6.5760   -0.9500 ca        1 MOL      0.214093
     87 C29         0.5250    7.6600   -0.1280 ca        1 MOL     -0.212852
     88 C30         1.1580    6.7720   -2.2830 ca        1 MOL     -0.212852
     89 C31         0.9350    8.9370   -0.6340 ca        1 MOL     -0.225204
     90 C32         1.6610    8.0080   -2.7460 ca        1 MOL     -0.225204
     91 C33         1.5920    9.1110   -1.9160 ca        1 MOL      0.284526
     92 O14         1.8830   10.3320   -2.3430 oh        1 MOL     -0.426119
     93 H37         2.5270    4.0350   -1.5950 hn        1 MOL      0.343926
     94 H38         1.9960    5.3780    0.9650 h1        1 MOL      0.003361
     95 H39        -0.4440    5.2780    0.1930 hc        1 MOL      0.077477
     96 H40         0.1420    4.5230   -1.3130 hc        1 MOL      0.077477
     97 H41         0.0840    7.5290    0.8490 ha        1 MOL      0.131817
     98 H42         1.1920    5.9230   -2.9440 ha        1 MOL      0.131817
     99 H43         0.8290    9.7890    0.0110 ha        1 MOL      0.148877
    100 H44         2.0150    8.0450   -3.7600 ha        1 MOL      0.148877
    101 H45         2.1190   10.2680   -3.2730 ho        1 MOL      0.349680
    102 N10         0.6770    3.5300    2.2780 n         1 MOL     -0.575236
    103 C34         0.2790    2.5250    3.2550 c3        1 MOL      0.182128
    104 C35        -0.5240    1.3430    2.5970 c         1 MOL      0.437891
    105 O15        -0.1750    0.6960    1.5830 o         1 MOL     -0.398826
    106 C36         1.5080    2.1690    4.0920 c3        1 MOL      0.177239
    107 C37         1.1020    1.2030    5.2430 c3        1 MOL     -0.145212
    108 C38         2.2280    3.4610    4.5920 c3        1 MOL     -0.143985
    109 C39         1.8270    1.0840    6.5940 c3        1 MOL     -0.075970
    110 H46         0.3450    4.4550    2.5160 hn        1 MOL      0.301443
    111 H47        -0.3350    2.9700    4.0360 h1        1 MOL      0.010499
    112 H48         2.2050    1.5820    3.5050 hc        1 MOL      0.065685
    113 H49         1.0210    0.2300    4.7530 hc        1 MOL      0.003272
    114 H50         0.0580    1.3640    5.5160 hc        1 MOL      0.003272
    115 H51         2.6640    4.0290    3.7810 hc        1 MOL      0.037172
    116 H52         1.4870    4.0690    5.1130 hc        1 MOL      0.037172
    117 H53         2.9900    3.3170    5.3560 hc        1 MOL      0.037172
    118 H54         2.9210    1.0160    6.5200 hc        1 MOL      0.037687
    119 H55         1.6700    1.9940    7.1660 hc        1 MOL      0.037687
    120 H56         1.4400    0.2910    7.2300 hc        1 MOL      0.037687
    121 N11        -1.6320    1.0210    3.1550 n         1 MOL     -0.523627
    122 C40        -2.3850   -0.2300    2.9510 c3        1 MOL     -0.066350
    123 C41        -3.3770   -0.1280    1.8590 c         1 MOL      0.500150
    124 O16        -3.9150   -1.1110    1.4540 o         1 MOL     -0.521897
    125 C42        -3.0070   -0.6700    4.2650 c3        1 MOL      0.174854
    126 O17        -1.9690   -0.9150    5.2900 oh        1 MOL     -0.608440
    127 H57        -1.9630    1.6080    3.9100 hn        1 MOL      0.291777
    128 H58        -1.6910   -1.0390    2.7230 h1        1 MOL      0.242755
    129 H59        -3.5310   -1.5960    4.0560 h1        1 MOL      0.051578
    130 H60        -3.7120    0.0840    4.6080 h1        1 MOL      0.051578
    131 H61        -1.8040   -0.1310    5.8080 ho        1 MOL      0.399937
    132 N12        -3.5290    0.9520    1.1200 n         1 MOL     -0.358913
    133 C43        -4.3080    1.0750   -0.1390 c3        1 MOL      0.084599
    134 C44        -4.0100   -0.0820   -1.0830 c         1 MOL      0.746589
    135 O18        -2.8310   -0.1820   -1.5550 o         1 MOL     -0.651806
    136 C45        -3.9350    2.3910   -0.8810 c3        1 MOL     -0.339835
    137 H62        -2.9400    1.7610    1.2030 hn        1 MOL      0.239672
    138 H63        -5.3500    1.1170    0.1930 h1        1 MOL      0.044501
    139 H64        -4.6930    2.6880   -1.6090 hc        1 MOL      0.104826
    140 H65        -3.7130    3.1750   -0.1640 hc        1 MOL      0.104826
    141 H66        -3.0290    2.2200   -1.4620 hc        1 MOL      0.104826
    142 N13        -4.9690   -0.9680   -1.4230 n         1 MOL     -0.762502
    143 C46        -6.3590   -1.0730   -0.8730 c3        1 MOL      0.577544
    144 C47        -7.3610   -0.1100   -1.6250 c         1 MOL      0.353724
    145 O19        -6.9880    0.5050   -2.6110 o         1 MOL     -0.537265
    146 C48        -6.6410   -2.5720   -0.9180 c3        1 MOL     -0.431191
    147 H67        -4.6170   -1.7670   -1.9190 hn        1 MOL      0.364028
    148 H68        -6.3490   -0.7240    0.1580 h1        1 MOL     -0.021687
    149 H69        -5.7470   -3.0820   -0.5480 hc        1 MOL      0.109365
    150 H70        -7.5660   -2.8360   -0.4000 hc        1 MOL      0.109365
    151 H71        -6.8620   -2.9210   -1.9320 hc        1 MOL      0.109365
    152 N14        -8.6150   -0.0260   -1.2720 n         1 MOL     -0.370314
    153 C49        -9.3280   -0.5210   -0.1120 c3        1 MOL     -0.043206
    154 C50        -9.5550    0.6040    0.8660 c         1 MOL      0.552989
    155 O20        -9.3870    0.4210    2.0790 o         1 MOL     -0.558029
    156 C51       -10.5670   -1.4000   -0.3520 c3        1 MOL      0.037089
    157 C52       -11.7430   -0.6850   -0.9520 c3        1 MOL     -0.200014
    158 C53       -11.5190   -0.2760   -2.3360 c         1 MOL      0.757018
    159 O21       -10.9840    0.8600   -2.4480 o         1 MOL     -0.685803
    160 O22       -11.9280   -0.8890   -3.3810 o         1 MOL     -0.685803
    161 H72        -9.2440    0.3920   -1.9520 hn        1 MOL      0.259823
    162 H73        -8.5810   -1.1600    0.3500 h1        1 MOL      0.005911
    163 H74       -10.6840   -1.8210    0.6450 hc        1 MOL      0.019122
    164 H75       -10.3840   -2.2600   -1.0000 hc        1 MOL      0.019122
    165 H76       -11.8990    0.2050   -0.3320 hc        1 MOL      0.023697
    166 H77       -12.6740   -1.2510   -0.9490 hc        1 MOL      0.023697
    167 N15        -9.7690    1.8340    0.3260 n         1 MOL     -0.267746
    168 C54        -9.7850    3.1060    1.0310 c3        1 MOL     -0.144883
    169 H78       -10.8110    3.3600    1.2980 h1        1 MOL      0.075766
    170 H79        -9.1820    3.0280    1.9360 h1        1 MOL      0.075766
    171 H80        -9.3750    3.8830    0.3870 h1        1 MOL      0.075766
    172 H81        -9.7830    1.9170   -0.6810 hn        1 MOL      0.241819
    173 Ca1         1.9650    0.2960   -0.8040 Ca        1 MOL      1.774041
    174 O23        -0.3070   -1.5020   -1.0430 oh        1 MOL     -0.871306
    175 H82        -1.1380   -1.9270   -0.8270 ho        1 MOL      0.425209
    176 H83         0.1130   -2.1040   -1.6620 ho        1 MOL      0.425209
    177 O24        -0.3140    1.6450   -1.5130 oh        1 MOL     -0.871306
    178 H84        -1.0470    1.0640   -1.3070 ho        1 MOL      0.425209
    179 H85        -0.4370    1.8490   -2.4440 ho        1 MOL      0.425209
    180 O25         2.2760    1.2190   -3.4560 oh        1 MOL     -0.871306
    181 H86         2.3950    2.1440   -3.6860 ho        1 MOL      0.425209
    182 H87         2.2430    0.7640   -4.2860 ho        1 MOL      0.425209
@<TRIPOS>BOND
     1    1    2 1   
     2    1    4 1   
     3    1    5 1   
     4    1    6 1   
     5    2    3 2   
     6    2    7 1   
     7    7    8 1   
     8    7   15 1   
     9    8    9 1   
    10    8   11 1   
    11    8   16 1   
    12    9   10 2   
    13    9   19 1   
    14   11   12 1   
    15   11   17 1   
    16   11   18 1   
    17   12   13 1   
    18   12   14 1   
    19   19   20 1   
    20   19   28 1   
    21   20   21 1   
    22   20   23 1   
    23   20   29 1   
    24   21   22 2   
    25   21   41 1   
    26   23   24 1   
    27   23   30 1   
    28   23   31 1   
    29   24   25 1   
    30   24   32 1   
    31   24   33 1   
    32   25   26 1   
    33   25   34 1   
    34   25   35 1   
    35   26   27 1   
    36   26   36 1   
    37   26   37 1   
    38   27   38 1   
    39   27   39 1   
    40   27   40 1   
    41   41   42 1   
    42   41   49 1   
    43   42   43 1   
    44   42   45 1   
    45   42   50 1   
    46   43   44 2   
    47   43   53 1   
    48   45   46 1   
    49   45   51 1   
    50   45   52 1   
    51   46   47 1   
    52   46   48 1   
    53   53   54 1   
    54   53   57 1   
    55   54   55 1   
    56   54   58 1   
    57   54   59 1   
    58   55   56 2   
    59   55   60 1   
    60   60   61 1   
    61   60   68 1   
    62   61   62 1   
    63   61   64 1   
    64   61   69 1   
    65   62   63 2   
    66   62   74 1   
    67   64   65 1   
    68   64   70 1   
    69   64   71 1   
    70   65   66 1   
    71   65   67 2   
    72   66   72 1   
    73   66   73 1   
    74   74   75 1   
    75   74   78 1   
    76   75   76 1   
    77   75   79 1   
    78   75   80 1   
    79   76   77 2   
    80   76   81 1   
    81   81   82 1   
    82   81   93 1   
    83   82   83 1   
    84   82   85 1   
    85   82   94 1   
    86   83   84 2   
    87   83  102 1   
    88   85   86 1   
    89   85   95 1   
    90   85   96 1   
    91   86   87 ar  
    92   86   88 ar  
    93   87   89 ar  
    94   87   97 1   
    95   88   90 ar  
    96   88   98 1   
    97   89   91 ar  
    98   89   99 1   
    99   90   91 ar  
   100   90  100 1   
   101   91   92 1   
   102   92  101 1   
   103  102  103 1   
   104  102  110 1   
   105  103  104 1   
   106  103  106 1   
   107  103  111 1   
   108  104  105 2   
   109  104  121 1   
   110  106  107 1   
   111  106  108 1   
   112  106  112 1   
   113  107  109 1   
   114  107  113 1   
   115  107  114 1   
   116  108  115 1   
   117  108  116 1   
   118  108  117 1   
   119  109  118 1   
   120  109  119 1   
   121  109  120 1   
   122  121  122 1   
   123  121  127 1   
   124  122  123 1   
   125  122  125 1   
   126  122  128 1   
   127  123  124 2   
   128  123  132 1   
   129  125  126 1   
   130  125  129 1   
   131  125  130 1   
   132  126  131 1   
   133  132  133 1   
   134  132  137 1   
   135  133  134 1   
   136  133  136 1   
   137  133  138 1   
   138  134  135 2   
   139  134  142 1   
   140  136  139 1   
   141  136  140 1   
   142  136  141 1   
   143  142  143 1   
   144  142  147 1   
   145  143  144 1   
   146  143  146 1   
   147  143  148 1   
   148  144  145 2   
   149  144  152 1   
   150  146  149 1   
   151  146  150 1   
   152  146  151 1   
   153  152  153 1   
   154  152  161 1   
   155  153  154 1   
   156  153  156 1   
   157  153  162 1   
   158  154  155 2   
   159  154  167 1   
   160  156  157 1   
   161  156  163 1   
   162  156  164 1   
   163  157  158 1   
   164  157  165 1   
   165  157  166 1   
   166  158  159 1   
   167  158  160 1   
   168  167  168 1   
   169  167  172 1   
   170  168  169 1   
   171  168  170 1   
   172  168  171 1   
   173  174  175 1   
   174  174  176 1   
   175  177  178 1   
   176  177  179 1   
   177  180  181 1   
   178  180  182 1   
@<TRIPOS>SUBSTRUCTURE
     1 MOL         1 TEMP              0 ****  ****    0 ROOT
