@<TRIPOS>MOLECULE
MOL
  182   178     1     0     0
SMALL
resp


@<TRIPOS>ATOM
      1 C1          2.3440   -4.3510    6.1140 c3        1 MOL     -0.307562
      2 C2          2.2210   -4.2710    4.6090 c         1 MOL      0.742461
      3 O1          1.3220   -4.8060    3.9770 o         1 MOL     -0.587885
      4 H1          2.7920   -3.4320    6.4900 hc        1 MOL      0.077674
      5 H2          1.3540   -4.4780    6.5530 hc        1 MOL      0.077674
      6 H3          2.9730   -5.1990    6.3830 hc        1 MOL      0.077674
      7 N1          3.1610   -3.5700    4.0010 n         1 MOL     -0.537532
      8 C3          3.1090   -3.0500    2.6810 c3        1 MOL      0.001871
      9 C4          3.5520   -4.0460    1.6200 c         1 MOL      0.567857
     10 O2          4.6400   -4.6770    1.5490 o         1 MOL     -0.578933
     11 C5          3.9830   -1.7590    2.6800 c3        1 MOL      0.200445
     12 C6          3.7330   -0.9400    1.3510 c         1 MOL      0.222266
     13 O3          4.0220    0.2380    1.2650 o         1 MOL     -0.595404
     14 O4          2.9250   -1.4740    0.5520 o         1 MOL     -0.595404
     15 H4          3.8750   -3.1420    4.5840 hn        1 MOL      0.286846
     16 H5          2.0790   -2.7280    2.5020 h1        1 MOL     -0.110090
     17 H6          5.0190   -2.0530    2.8870 hc        1 MOL     -0.018481
     18 H7          3.6810   -1.1730    3.5430 hc        1 MOL     -0.018481
     19 N2          2.7010   -4.2720    0.6600 n         1 MOL     -0.127460
     20 C7          2.8510   -5.1380   -0.5500 c3        1 MOL     -0.001520
     21 C8          3.9500   -4.8010   -1.6080 c         1 MOL      0.640659
     22 O5          4.4130   -5.6380   -2.3990 o         1 MOL     -0.563836
     23 C9          1.5220   -5.2150   -1.2400 c3        1 MOL     -0.058637
     24 C10         1.2000   -6.5230   -1.9170 c3        1 MOL     -0.121753
     25 C11         1.5820   -7.7920   -1.1680 c3        1 MOL      0.243817
     26 C12         0.8720   -8.9760   -1.8400 c3        1 MOL     -0.027560
     27 N3          1.1030  -10.2590   -1.0640 n4        1 MOL     -0.349511
     28 H8          1.8100   -3.8300    0.8180 hn        1 MOL      0.078122
     29 H9          3.1090   -6.1560   -0.2570 h1        1 MOL      0.005557
     30 H10         1.4610   -4.4780   -2.0470 hc        1 MOL      0.052986
     31 H11         0.7460   -5.0080   -0.5020 hc        1 MOL      0.052986
     32 H12         1.7350   -6.6000   -2.8660 hc        1 MOL      0.029715
     33 H13         0.1170   -6.5590   -2.0070 hc        1 MOL      0.029715
     34 H14         1.2680   -7.7070   -0.1240 hc        1 MOL     -0.010614
     35 H15         2.6610   -7.9440   -1.2240 hc        1 MOL     -0.010614
     36 H16         1.2620   -9.0130   -2.8580 hx        1 MOL      0.080669
     37 H17        -0.2020   -8.8240   -1.8730 hx        1 MOL      0.080669
     38 H18         0.5480  -10.2930   -0.2180 hn        1 MOL      0.275963
     39 H19         0.8160  -11.0170   -1.6710 hn        1 MOL      0.275963
     40 H20         2.0790  -10.5090   -0.9800 hn        1 MOL      0.275963
     41 N4          4.5360   -3.5690   -1.5730 n         1 MOL     -0.427568
     42 C13         5.6900   -3.0890   -2.3430 c3        1 MOL      0.021442
     43 C14         6.6800   -2.3390   -1.4770 c         1 MOL      0.383562
     44 O6          7.6430   -1.7600   -1.9420 o         1 MOL     -0.507634
     45 C15         5.3250   -2.2220   -3.5480 c3        1 MOL     -0.277603
     46 C16         4.3680   -1.1840   -3.1780 c         1 MOL      0.751039
     47 O7          4.4790   -0.6030   -2.1090 o         1 MOL     -0.687205
     48 O8          3.4090   -1.0210   -4.0150 o         1 MOL     -0.687205
     49 H21         4.1320   -2.9240   -0.9040 hn        1 MOL      0.189472
     50 H22         6.2730   -3.9540   -2.6490 h1        1 MOL      0.127353
     51 H23         4.8940   -2.8470   -4.3200 hc        1 MOL      0.087684
     52 H24         6.1720   -1.8260   -4.1100 hc        1 MOL      0.087684
     53 N5          6.3270   -2.1530   -0.1680 n         1 MOL     -0.039156
     54 C17         7.1880   -1.4170    0.6680 c3        1 MOL     -0.290739
     55 C18         7.4890    0.0780    0.4090 c         1 MOL      0.604102
     56 O9          8.4880    0.5350    0.9060 o         1 MOL     -0.566836
     57 H25         5.4890   -2.5880    0.1860 hn        1 MOL      0.061842
     58 H26         8.1660   -1.8990    0.7330 h1        1 MOL      0.126689
     59 H27         6.6970   -1.5050    1.6400 h1        1 MOL      0.126689
     60 N6          6.6810    0.7140   -0.4600 n         1 MOL     -0.341154
     61 C19         6.7420    2.1030   -0.9050 c3        1 MOL      0.144982
     62 C20         5.3990    2.8990   -0.6430 c         1 MOL      0.437054
     63 O10         4.3350    2.3450   -0.8150 o         1 MOL     -0.446271
     64 C21         7.0630    2.0690   -2.4280 c3        1 MOL     -0.210240
     65 C22         7.6610    3.4010   -2.8420 c         1 MOL      0.601176
     66 N7          8.9780    3.5770   -2.6840 n         1 MOL     -0.786115
     67 O11         6.8270    4.2550   -3.1500 o         1 MOL     -0.557922
     68 H28         5.9610    0.2360   -0.9930 hn        1 MOL      0.250815
     69 H29         7.5030    2.6170   -0.3210 h1        1 MOL     -0.003955
     70 H30         6.1720    1.7790   -2.9860 hc        1 MOL      0.099585
     71 H31         7.8070    1.2740   -2.4940 hc        1 MOL      0.099585
     72 H32         9.5750    2.7710   -2.5700 hn        1 MOL      0.373286
     73 H33         9.2750    4.5110   -2.4620 hn        1 MOL      0.373286
     74 N8          5.5010    4.1580   -0.1920 n         1 MOL     -0.351948
     75 C23         4.4560    5.2300   -0.2200 c3        1 MOL     -0.102920
     76 C24         3.3110    5.1040    0.8420 c         1 MOL      0.568347
     77 O12         3.5640    4.8300    2.0110 o         1 MOL     -0.481604
     78 H34         6.4220    4.4450    0.1160 hn        1 MOL      0.297957
     79 H35         3.9870    5.2770   -1.2100 h1        1 MOL      0.087393
     80 H36         4.9260    6.2060   -0.1830 h1        1 MOL      0.087393
     81 N9          2.0500    5.0440    0.2970 n         1 MOL     -0.585702
     82 C25         0.8800    4.6000    1.0610 c3        1 MOL      0.150570
     83 C26         0.9680    3.1770    1.3800 c         1 MOL      0.500300
     84 O13         1.8250    2.4600    0.8060 o         1 MOL     -0.490217
     85 C27        -0.4110    5.0990    0.3150 c3        1 MOL     -0.164550
     86 C28        -0.6070    6.6490    0.1880 ca        1 MOL      0.212133
     87 C29        -0.7330    7.2230   -1.0780 ca        1 MOL     -0.274689
     88 C30        -0.4650    7.5370    1.2450 ca        1 MOL     -0.274689
     89 C31        -0.6010    8.5930   -1.2740 ca        1 MOL     -0.139793
     90 C32        -0.4440    8.9390    1.1380 ca        1 MOL     -0.139793
     91 C33        -0.3980    9.4350   -0.1740 ca        1 MOL      0.228788
     92 O14        -0.4580   10.7890   -0.3790 oh        1 MOL     -0.457034
     93 H37         1.9100    5.3200   -0.6660 hn        1 MOL      0.295437
     94 H38         0.8220    5.2270    1.9540 h1        1 MOL      0.072835
     95 H39        -1.3290    4.7980    0.8320 hc        1 MOL      0.039441
     96 H40        -0.2690    4.6790   -0.6730 hc        1 MOL      0.039441
     97 H41        -0.9280    6.5280   -1.8810 ha        1 MOL      0.145258
     98 H42        -0.4320    7.2280    2.2820 ha        1 MOL      0.145258
     99 H43        -0.6430    9.0740   -2.2310 ha        1 MOL      0.143731
    100 H44        -0.4790    9.5720    2.0100 ha        1 MOL      0.143731
    101 H45        -0.3680   11.0460   -1.3020 ho        1 MOL      0.355845
    102 N10         0.2070    2.7900    2.4110 n         1 MOL     -0.560749
    103 C34        -0.0070    1.3780    2.8330 c3        1 MOL      0.119622
    104 C35        -0.3360    0.3620    1.7260 c         1 MOL      0.133555
    105 O15         0.5380   -0.0150    0.9720 o         1 MOL      0.001514
    106 C36         1.1080    0.8340    3.8320 c3        1 MOL      0.208628
    107 C37         0.8730   -0.6320    4.2490 c3        1 MOL     -0.069331
    108 C38         1.3840    1.7990    4.9630 c3        1 MOL     -0.275171
    109 C39        -0.2870   -0.8190    5.2390 c3        1 MOL     -0.334339
    110 H46        -0.2890    3.5310    2.8840 hn        1 MOL      0.315645
    111 H47        -0.8790    1.4540    3.4810 h1        1 MOL      0.042664
    112 H48         2.0040    0.8360    3.2060 hc        1 MOL      0.074246
    113 H49         1.8110   -0.9760    4.6740 hc        1 MOL      0.092036
    114 H50         0.6460   -1.3310    3.4390 hc        1 MOL      0.092036
    115 H51         2.1240    1.3180    5.6080 hc        1 MOL      0.068348
    116 H52         1.8950    2.6870    4.5970 hc        1 MOL      0.068348
    117 H53         0.4980    1.9220    5.5940 hc        1 MOL      0.068348
    118 H54        -0.2350   -1.8490    5.5840 hc        1 MOL      0.082658
    119 H55        -0.2130   -0.1930    6.1280 hc        1 MOL      0.082658
    120 H56        -1.1770   -0.5770    4.6590 hc        1 MOL      0.082658
    121 N11        -1.5050   -0.2100    1.6540 n         1 MOL     -0.334514
    122 C40        -1.8690   -1.1650    0.4720 c3        1 MOL     -0.051923
    123 C41        -3.3420   -1.0650   -0.0310 c         1 MOL      0.570070
    124 O16        -3.6050   -1.6710   -1.0640 o         1 MOL     -0.511095
    125 C42        -1.5000   -2.6230    0.8020 c3        1 MOL      0.019098
    126 O17        -0.0780   -2.6840    1.1290 oh        1 MOL     -0.176442
    127 H57        -2.1240   -0.1170    2.4380 hn        1 MOL      0.297085
    128 H58        -1.3500   -0.7900   -0.4110 h1        1 MOL      0.149656
    129 H59        -1.6260   -3.4110    0.0660 h1        1 MOL      0.072936
    130 H60        -1.9790   -2.8390    1.7580 h1        1 MOL      0.072936
    131 H61         0.1890   -1.7770    0.9710 ho        1 MOL     -0.096458
    132 N12        -4.2450   -0.3250    0.6800 n         1 MOL     -0.547362
    133 C43        -5.6190   -0.2090    0.2940 c3        1 MOL      0.184462
    134 C44        -5.8720    0.4770   -1.1060 c         1 MOL      0.578827
    135 O18        -5.0060    1.2950   -1.4680 o         1 MOL     -0.584366
    136 C45        -6.4040    0.4420    1.4610 c3        1 MOL     -0.371202
    137 H62        -3.8640    0.3670    1.3130 hn        1 MOL      0.268019
    138 H63        -6.0690   -1.1880    0.1870 h1        1 MOL      0.063149
    139 H64        -6.0390    1.4470    1.6830 hc        1 MOL      0.116761
    140 H65        -7.4580    0.4330    1.1810 hc        1 MOL      0.116761
    141 H66        -6.3810   -0.1390    2.3870 hc        1 MOL      0.116761
    142 N13        -6.9560    0.2600   -1.8050 n         1 MOL     -0.631512
    143 C46        -8.1010   -0.6110   -1.6120 c3        1 MOL      0.482816
    144 C47        -9.3380   -0.0620   -2.3210 c         1 MOL      0.382638
    145 O19        -9.1790    0.3070   -3.4850 o         1 MOL     -0.560665
    146 C48        -7.8180   -1.9760   -2.1600 c3        1 MOL     -0.326653
    147 H67        -6.8490    0.8230   -2.6340 hn        1 MOL      0.331680
    148 H68        -8.3500   -0.6500   -0.5520 h1        1 MOL     -0.053808
    149 H69        -8.7000   -2.5350   -2.4940 hc        1 MOL      0.091281
    150 H70        -7.1430   -1.9370   -3.0170 hc        1 MOL      0.091281
    151 H71        -7.3690   -2.5790   -1.3830 hc        1 MOL      0.091281
    152 N14       -10.4230    0.0520   -1.7130 n         1 MOL     -0.436192
    153 C49       -10.7040   -0.4520   -0.3890 c3        1 MOL      0.013473
    154 C50       -10.3740    0.4960    0.7710 c         1 MOL      0.452552
    155 O20        -9.9540   -0.0040    1.7970 o         1 MOL     -0.490533
    156 C51       -12.1790   -0.7790   -0.3170 c3        1 MOL      0.069163
    157 C52       -12.9530   -1.7320   -1.2380 c3        1 MOL     -0.174672
    158 C53       -14.4430   -1.7680   -0.8680 c         1 MOL      0.695835
    159 O21       -15.3600   -1.3450   -1.5530 o         1 MOL     -0.654103
    160 O22       -14.6150   -2.3600    0.2330 o         1 MOL     -0.654103
    161 H72       -11.1520    0.3770   -2.3320 hn        1 MOL      0.342586
    162 H73       -10.0950   -1.3470   -0.2410 h1        1 MOL      0.065545
    163 H74       -12.5480    0.2390   -0.4530 hc        1 MOL      0.004518
    164 H75       -12.3120   -1.1010    0.7270 hc        1 MOL      0.004518
    165 H76       -12.5810   -2.7470   -1.0870 hc        1 MOL      0.021714
    166 H77       -12.8900   -1.4630   -2.2920 hc        1 MOL      0.021714
    167 N15       -10.4150    1.8320    0.6110 n         1 MOL     -0.349502
    168 C54        -9.7010    2.6530    1.6130 c3        1 MOL     -0.194898
    169 H78        -8.8020    3.0740    1.1630 h1        1 MOL      0.103717
    170 H79       -10.3500    3.4610    1.9510 h1        1 MOL      0.103717
    171 H80        -9.4220    2.0290    2.4630 h1        1 MOL      0.103717
    172 H81       -10.6580    2.2410   -0.2730 hn        1 MOL      0.282804
    173 Ca1         2.4810    0.5650   -0.8570 Ca        1 MOL      1.657932
    174 O23         0.8500   -1.0920   -2.3410 oh        1 MOL     -0.822772
    175 H82         1.1910   -1.9590   -2.5680 ho        1 MOL      0.401504
    176 H83        -0.0750   -1.1220   -2.6060 ho        1 MOL      0.401504
    177 O24         0.2100    1.9920   -1.4530 oh        1 MOL     -0.822772
    178 H84        -0.7420    1.9620   -1.4310 ho        1 MOL      0.401504
    179 H85         0.4180    2.7080   -2.0580 ho        1 MOL      0.401504
    180 O25         2.7340    1.9840   -3.2660 oh        1 MOL     -0.822772
    181 H86         2.5250    2.9210   -3.2230 ho        1 MOL      0.401504
    182 H87         2.2400    1.6540   -4.0140 ho        1 MOL      0.401504
@<TRIPOS>BOND
     1    1    2 1   
     2    1    4 1   
     3    1    5 1   
     4    1    6 1   
     5    2    3 2   
     6    2    7 1   
     7    7    8 1   
     8    7   15 1   
     9    8    9 1   
    10    8   11 1   
    11    8   16 1   
    12    9   10 2   
    13    9   19 1   
    14   11   12 1   
    15   11   17 1   
    16   11   18 1   
    17   12   13 1   
    18   12   14 1   
    19   19   20 1   
    20   19   28 1   
    21   20   21 1   
    22   20   23 1   
    23   20   29 1   
    24   21   22 2   
    25   21   41 1   
    26   23   24 1   
    27   23   30 1   
    28   23   31 1   
    29   24   25 1   
    30   24   32 1   
    31   24   33 1   
    32   25   26 1   
    33   25   34 1   
    34   25   35 1   
    35   26   27 1   
    36   26   36 1   
    37   26   37 1   
    38   27   38 1   
    39   27   39 1   
    40   27   40 1   
    41   41   42 1   
    42   41   49 1   
    43   42   43 1   
    44   42   45 1   
    45   42   50 1   
    46   43   44 2   
    47   43   53 1   
    48   45   46 1   
    49   45   51 1   
    50   45   52 1   
    51   46   47 1   
    52   46   48 1   
    53   53   54 1   
    54   53   57 1   
    55   54   55 1   
    56   54   58 1   
    57   54   59 1   
    58   55   56 2   
    59   55   60 1   
    60   60   61 1   
    61   60   68 1   
    62   61   62 1   
    63   61   64 1   
    64   61   69 1   
    65   62   63 2   
    66   62   74 1   
    67   64   65 1   
    68   64   70 1   
    69   64   71 1   
    70   65   66 1   
    71   65   67 2   
    72   66   72 1   
    73   66   73 1   
    74   74   75 1   
    75   74   78 1   
    76   75   76 1   
    77   75   79 1   
    78   75   80 1   
    79   76   77 2   
    80   76   81 1   
    81   81   82 1   
    82   81   93 1   
    83   82   83 1   
    84   82   85 1   
    85   82   94 1   
    86   83   84 2   
    87   83  102 1   
    88   85   86 1   
    89   85   95 1   
    90   85   96 1   
    91   86   87 ar  
    92   86   88 ar  
    93   87   89 ar  
    94   87   97 1   
    95   88   90 ar  
    96   88   98 1   
    97   89   91 ar  
    98   89   99 1   
    99   90   91 ar  
   100   90  100 1   
   101   91   92 1   
   102   92  101 1   
   103  102  103 1   
   104  102  110 1   
   105  103  104 1   
   106  103  106 1   
   107  103  111 1   
   108  104  105 2   
   109  104  121 1   
   110  106  107 1   
   111  106  108 1   
   112  106  112 1   
   113  107  109 1   
   114  107  113 1   
   115  107  114 1   
   116  108  115 1   
   117  108  116 1   
   118  108  117 1   
   119  109  118 1   
   120  109  119 1   
   121  109  120 1   
   122  121  122 1   
   123  121  127 1   
   124  122  123 1   
   125  122  125 1   
   126  122  128 1   
   127  123  124 2   
   128  123  132 1   
   129  125  126 1   
   130  125  129 1   
   131  125  130 1   
   132  126  131 1   
   133  132  133 1   
   134  132  137 1   
   135  133  134 1   
   136  133  136 1   
   137  133  138 1   
   138  134  135 2   
   139  134  142 1   
   140  136  139 1   
   141  136  140 1   
   142  136  141 1   
   143  142  143 1   
   144  142  147 1   
   145  143  144 1   
   146  143  146 1   
   147  143  148 1   
   148  144  145 2   
   149  144  152 1   
   150  146  149 1   
   151  146  150 1   
   152  146  151 1   
   153  152  153 1   
   154  152  161 1   
   155  153  154 1   
   156  153  156 1   
   157  153  162 1   
   158  154  155 2   
   159  154  167 1   
   160  156  157 1   
   161  156  163 1   
   162  156  164 1   
   163  157  158 1   
   164  157  165 1   
   165  157  166 1   
   166  158  159 1   
   167  158  160 1   
   168  167  168 1   
   169  167  172 1   
   170  168  169 1   
   171  168  170 1   
   172  168  171 1   
   173  174  175 1   
   174  174  176 1   
   175  177  178 1   
   176  177  179 1   
   177  180  181 1   
   178  180  182 1   
@<TRIPOS>SUBSTRUCTURE
     1 MOL         1 TEMP              0 ****  ****    0 ROOT
