@<TRIPOS>MOLECULE
MOL
  178   175     1     0     0
SMALL
resp


@<TRIPOS>ATOM
      1 C1          1.3560   -1.3260    5.1360 c3        1 MOL     -0.345690
      2 C2          2.6790   -0.8140    4.6030 c         1 MOL      0.681444
      3 O1          2.9190    0.3960    4.6800 o         1 MOL     -0.577268
      4 H1          1.5420   -2.0620    5.9180 hc        1 MOL      0.082679
      5 H2          0.7830   -0.4960    5.5470 hc        1 MOL      0.082679
      6 H3          0.7930   -1.7910    4.3260 hc        1 MOL      0.082679
      7 N1          3.4800   -1.6370    3.9690 n         1 MOL     -0.520903
      8 C3          4.6930   -1.2080    3.1560 c3        1 MOL      0.089716
      9 C4          5.1610   -2.3650    2.2000 c         1 MOL      0.441616
     10 O2          6.0710   -2.1590    1.4440 o         1 MOL     -0.446439
     11 C5          5.7880   -0.6980    4.0560 c3        1 MOL     -0.125936
     12 C6          6.0070   -1.5110    5.3680 c         1 MOL      0.770767
     13 O3          6.3380   -0.8730    6.3910 o         1 MOL     -0.749453
     14 O4          5.8960   -2.7180    5.3770 o         1 MOL     -0.749453
     15 H4          3.1860   -2.5980    3.8280 hn        1 MOL      0.268773
     16 H5          4.3930   -0.3830    2.5250 h1        1 MOL      0.073033
     17 H6          5.7370    0.3790    4.2450 hc        1 MOL      0.005255
     18 H7          6.6740   -0.8090    3.4310 hc        1 MOL      0.005255
     19 N2          4.4350   -3.4620    2.1130 n         1 MOL     -0.428912
     20 C7          4.6670   -4.5190    1.1650 c3        1 MOL      0.242651
     21 C8          4.8170   -4.2420   -0.3420 c         1 MOL      0.389410
     22 O5          5.3980   -4.9620   -1.1470 o         1 MOL     -0.504547
     23 C9          5.9030   -5.3420    1.7180 c3        1 MOL     -0.436388
     24 H8          3.7190   -3.6380    2.8090 hn        1 MOL      0.259988
     25 H9          3.8070   -5.1980    1.2780 h1        1 MOL      0.058634
     26 H10         5.4990   -5.9380    2.5360 hc        1 MOL      0.112565
     27 H11         6.2580   -6.0110    0.9250 hc        1 MOL      0.112565
     28 H12         6.6990   -4.6930    2.0780 hc        1 MOL      0.112565
     29 N3          4.1420   -3.2170   -0.8430 n         1 MOL     -0.351346
     30 C10         4.2620   -2.7340   -2.2840 c3        1 MOL      0.263966
     31 C11         5.7250   -2.4720   -2.6410 c         1 MOL      0.475299
     32 O6          6.1260   -2.6390   -3.7790 o         1 MOL     -0.568127
     33 C12         3.4760   -3.5580   -3.3050 c3        1 MOL     -0.389322
     34 C13         2.1310   -3.7120   -2.7300 c         1 MOL      0.829895
     35 O7          1.6660   -4.8270   -2.4160 o         1 MOL     -0.760611
     36 O8          1.4310   -2.7000   -2.5910 o         1 MOL     -0.760611
     37 H13         3.4690   -2.7900   -0.2170 hn        1 MOL      0.182963
     38 H14         3.8480   -1.7270   -2.3840 h1        1 MOL      0.053715
     39 H15         4.0270   -4.4860   -3.4540 hc        1 MOL      0.084478
     40 H16         3.4320   -2.9860   -4.2320 hc        1 MOL      0.084478
     41 N4          6.6370   -2.1060   -1.7240 n         1 MOL     -0.151477
     42 C14         8.0350   -1.7150   -2.1020 c3        1 MOL     -0.107373
     43 C15         8.0930   -0.1530   -2.0480 c         1 MOL      0.609352
     44 O9          9.1590    0.3840   -1.8540 o         1 MOL     -0.588126
     45 H17         6.3870   -1.9700   -0.7500 hn        1 MOL      0.116600
     46 H18         8.3330   -2.0980   -3.0800 h1        1 MOL      0.082714
     47 H19         8.7670   -2.0810   -1.3850 h1        1 MOL      0.082714
     48 N5          6.9460    0.5410   -2.2560 n         1 MOL     -0.362049
     49 C16         6.7150    1.9920   -2.3510 c3        1 MOL      0.230350
     50 C17         5.7200    2.5160   -1.3410 c         1 MOL      0.466620
     51 O10         5.0590    1.8030   -0.5820 o         1 MOL     -0.438807
     52 C18         6.3480    2.3650   -3.7830 c3        1 MOL     -0.330496
     53 C19         4.9360    1.9280   -4.2440 c         1 MOL      0.743621
     54 N6          4.4460    2.3100   -5.4030 n         1 MOL     -0.846762
     55 O11         4.1990    1.2570   -3.5390 o         1 MOL     -0.469351
     56 H20         6.0650    0.0670   -2.2900 hn        1 MOL      0.116663
     57 H21         7.6190    2.5050   -2.0170 h1        1 MOL      0.032683
     58 H22         6.9650    1.7700   -4.4480 hc        1 MOL      0.058045
     59 H23         6.4150    3.4480   -3.9140 hc        1 MOL      0.058045
     60 H24         4.8940    2.9560   -6.0320 hn        1 MOL      0.368906
     61 H25         3.5220    2.0150   -5.6770 hn        1 MOL      0.368906
     62 N7          5.6250    3.8770   -1.3660 n         1 MOL     -0.462694
     63 C20         4.8360    4.6150   -0.3330 c3        1 MOL     -0.096883
     64 C21         3.5430    5.2570   -0.8590 c         1 MOL      0.655235
     65 O12         3.0900    4.9910   -2.0120 o         1 MOL     -0.533498
     66 H26         6.1090    4.4870   -2.0110 hn        1 MOL      0.301349
     67 H27         5.5250    5.3940   -0.0010 h1        1 MOL      0.086443
     68 H28         4.5220    3.9860    0.5020 h1        1 MOL      0.086443
     69 N8          2.8920    6.1060   -0.0660 n         1 MOL     -0.534942
     70 C22         1.7780    7.0300   -0.3770 c3        1 MOL     -0.233217
     71 C23         0.3850    6.4980   -0.1760 c         1 MOL      0.633585
     72 O13        -0.5410    7.2760   -0.1880 o         1 MOL     -0.585792
     73 C24         1.9050    8.4570    0.2620 c3        1 MOL      0.531712
     74 C25         1.8280    8.5100    1.7560 c3        1 MOL     -0.296932
     75 O14         3.0170    9.1560   -0.2660 oh        1 MOL     -0.648631
     76 H29         3.3580    6.3420    0.8000 hn        1 MOL      0.251094
     77 H30         1.7300    7.2170   -1.4540 h1        1 MOL      0.132066
     78 H31         1.0320    8.9880   -0.1190 h1        1 MOL      0.016011
     79 H32         3.7770    8.6800    0.0650 ho        1 MOL      0.375467
     80 H33         0.8460    8.1450    2.0440 hc        1 MOL      0.063768
     81 H34         2.6490    7.9450    2.2030 hc        1 MOL      0.063768
     82 H35         2.0130    9.5320    2.0760 hc        1 MOL      0.063768
     83 N9          0.2070    5.2280    0.1970 n         1 MOL     -0.328088
     84 C26        -1.0340    4.5940    0.5180 c3        1 MOL     -0.168665
     85 C27        -1.1130    3.1390   -0.0890 c         1 MOL      0.498994
     86 O15        -0.1790    2.7080   -0.8130 o         1 MOL     -0.442902
     87 C28        -1.3690    4.6730    2.0340 c3        1 MOL      0.094885
     88 C29        -0.2080    3.9610    2.7890 c3        1 MOL     -0.033575
     89 C30        -1.5360    6.1190    2.5180 c3        1 MOL     -0.138145
     90 C31        -0.1770    4.0620    4.2610 c3        1 MOL     -0.474720
     91 H36         0.9870    4.6000    0.2400 hn        1 MOL      0.253741
     92 H37        -1.7340    5.2780    0.0300 h1        1 MOL      0.111734
     93 H38        -2.2930    4.1060    2.1590 hc        1 MOL     -0.015767
     94 H39         0.7790    4.3150    2.4920 hc        1 MOL      0.111228
     95 H40        -0.2850    2.9160    2.4600 hc        1 MOL      0.111228
     96 H41        -1.8790    6.1310    3.5460 hc        1 MOL      0.040590
     97 H42        -0.5680    6.6320    2.4780 hc        1 MOL      0.040590
     98 H43        -2.2460    6.6310    1.8810 hc        1 MOL      0.040590
     99 H44         0.6600    3.4300    4.5440 hc        1 MOL      0.122528
    100 H45         0.0210    5.1160    4.4770 hc        1 MOL      0.122528
    101 H46        -1.0360    3.6550    4.7860 hc        1 MOL      0.122528
    102 N10        -2.1660    2.3720    0.1960 n         1 MOL     -0.577445
    103 C32        -2.3320    1.0540   -0.4100 c3        1 MOL      0.180723
    104 C33        -3.8230    0.5890   -0.6310 c         1 MOL      0.502561
    105 O16        -4.2230   -0.5980   -0.6010 o         1 MOL     -0.454145
    106 C34        -1.6400   -0.0240    0.4040 c3        1 MOL     -0.103983
    107 C35        -1.1510   -1.3210   -0.2780 c         1 MOL      0.669027
    108 O17        -1.4150   -1.5790   -1.4930 o         1 MOL     -0.707702
    109 O18        -0.4630   -2.0790    0.3920 o         1 MOL     -0.707702
    110 H47        -2.8490    2.8520    0.7620 hn        1 MOL      0.324375
    111 H48        -1.9240    1.1170   -1.4240 h1        1 MOL      0.083022
    112 H49        -2.2900   -0.2960    1.2380 hc        1 MOL      0.014294
    113 H50        -0.7270    0.4750    0.6990 hc        1 MOL      0.014294
    114 N11        -4.7380    1.5260   -0.9790 n         1 MOL     -0.540505
    115 C36        -6.1520    1.2660   -1.3170 c3        1 MOL      0.255956
    116 C37        -6.7240    0.3170   -0.2630 c         1 MOL      0.344340
    117 O19        -6.7920    0.7220    0.8970 o         1 MOL     -0.525435
    118 C38        -6.9070    2.5930   -1.5480 c3        1 MOL     -0.123638
    119 C39        -8.3420    2.3870   -1.9180 ca        1 MOL      0.071605
    120 C40        -8.7190    2.0250   -3.2310 ca        1 MOL     -0.198388
    121 C41        -9.4010    2.4730   -0.9630 ca        1 MOL     -0.198388
    122 C42       -10.0460    1.6100   -3.4510 ca        1 MOL     -0.050669
    123 C43       -10.7450    2.1820   -1.2380 ca        1 MOL     -0.050669
    124 C44       -11.0590    1.6620   -2.5070 ca        1 MOL     -0.168903
    125 H51        -4.5380    2.4940   -0.8010 hn        1 MOL      0.249221
    126 H52        -6.1310    0.8570   -2.3330 h1        1 MOL      0.030102
    127 H53        -6.4430    3.1730   -2.3410 hc        1 MOL      0.068240
    128 H54        -6.7330    3.2450   -0.6880 hc        1 MOL      0.068240
    129 H55        -8.0000    1.8750   -4.0210 ha        1 MOL      0.122084
    130 H56        -9.0370    2.7930   -0.0010 ha        1 MOL      0.122084
    131 H57       -10.3030    1.2660   -4.4430 ha        1 MOL      0.096164
    132 H58       -11.4880    2.2560   -0.4540 ha        1 MOL      0.096164
    133 H59       -12.0690    1.3740   -2.7640 ha        1 MOL      0.115943
    134 N12        -7.3620   -0.8280   -0.6480 n         1 MOL      0.030392
    135 C45        -8.1660   -1.7000    0.1990 c3        1 MOL      0.012599
    136 C46        -7.3270   -2.1920    1.4310 c         1 MOL      0.267870
    137 O20        -7.8900   -2.5340    2.4990 o         1 MOL     -0.529560
    138 C47        -8.5440   -2.8880   -0.6390 c3        1 MOL     -0.164458
    139 C48        -7.5910   -2.9850   -1.7900 c3        1 MOL      0.119157
    140 C49        -7.4190   -1.4590   -1.9690 c3        1 MOL     -0.153281
    141 H60        -9.0190   -1.1120    0.5500 h1        1 MOL      0.079914
    142 H61        -8.4330   -3.8180   -0.0830 hc        1 MOL      0.057156
    143 H62        -9.5230   -2.7740   -1.0920 hc        1 MOL      0.057156
    144 H63        -6.6580   -3.5120   -1.5580 hc        1 MOL      0.005536
    145 H64        -8.0880   -3.4500   -2.6390 hc        1 MOL      0.005536
    146 H65        -6.5180   -1.2440   -2.5460 h1        1 MOL      0.042587
    147 H66        -8.2180   -0.9880   -2.5560 h1        1 MOL      0.042587
    148 N13        -5.9910   -2.0690    1.4160 n         1 MOL      0.004974
    149 C50        -5.1110   -2.5420    2.4810 c3        1 MOL     -0.204124
    150 C51        -4.7150   -1.3850    3.4580 c         1 MOL      0.412805
    151 O21        -4.2690   -1.7360    4.5980 o         1 MOL     -0.537610
    152 C52        -3.9060   -3.1990    1.8450 c3        1 MOL      0.355878
    153 C53        -4.2630   -4.3460    0.7970 c3        1 MOL     -0.360030
    154 C54        -3.0500   -4.6550   -0.0330 c         1 MOL      0.770941
    155 O22        -1.9820   -5.0190    0.5090 o         1 MOL     -0.793852
    156 O23        -2.9730   -4.3700   -1.2560 o         1 MOL     -0.793852
    157 H67        -5.5170   -1.6500    0.6340 hn        1 MOL      0.153978
    158 H68        -5.5940   -3.3830    2.9830 h1        1 MOL      0.113961
    159 H69        -3.3040   -3.6740    2.6200 hc        1 MOL     -0.050370
    160 H70        -3.3180   -2.4420    1.3240 hc        1 MOL     -0.050370
    161 H71        -5.0830   -3.9740    0.1840 hc        1 MOL      0.068938
    162 H72        -4.5830   -5.2320    1.3570 hc        1 MOL      0.068938
    163 N14        -4.8430   -0.0900    3.0870 n         1 MOL     -0.090739
    164 C55        -4.8370    1.0060    4.0780 c3        1 MOL     -0.334663
    165 H73        -5.5900    1.7450    3.8070 h1        1 MOL      0.123292
    166 H74        -5.0630    0.6040    5.0660 h1        1 MOL      0.123292
    167 H75        -3.8540    1.4780    4.0930 h1        1 MOL      0.123292
    168 H76        -5.2300    0.1140    2.1830 hn        1 MOL      0.169381
    169 Ca1        -0.3900   -3.9280   -1.3190 Ca        1 MOL      1.745217
    170 O24        -1.0400   -3.8370   -4.1470 oh        1 MOL     -0.777987
    171 H77        -1.5080   -4.6370   -4.3870 ho        1 MOL      0.385061
    172 H78        -1.5540   -3.1280   -4.5370 ho        1 MOL      0.385061
    173 O25        -0.7810   -6.7300   -1.7460 oh        1 MOL     -0.777987
    174 H79        -0.1900   -7.3380   -1.3060 ho        1 MOL      0.385061
    175 H80        -1.4660   -7.2870   -2.1070 ho        1 MOL      0.385061
    176 O26         1.2970   -4.7260    0.6110 oh        1 MOL     -0.777987
    177 H81         0.9830   -4.2080    1.3610 ho        1 MOL      0.385061
    178 H82         1.6450   -5.5280    1.0010 ho        1 MOL      0.385061
@<TRIPOS>BOND
     1    1    2 1   
     2    1    4 1   
     3    1    5 1   
     4    1    6 1   
     5    2    3 2   
     6    2    7 1   
     7    7    8 1   
     8    7   15 1   
     9    8    9 1   
    10    8   11 1   
    11    8   16 1   
    12    9   10 2   
    13    9   19 1   
    14   11   12 1   
    15   11   17 1   
    16   11   18 1   
    17   12   13 1   
    18   12   14 1   
    19   19   20 1   
    20   19   24 1   
    21   20   21 1   
    22   20   23 1   
    23   20   25 1   
    24   21   22 2   
    25   21   29 1   
    26   23   26 1   
    27   23   27 1   
    28   23   28 1   
    29   29   30 1   
    30   29   37 1   
    31   30   31 1   
    32   30   33 1   
    33   30   38 1   
    34   31   32 2   
    35   31   41 1   
    36   33   34 1   
    37   33   39 1   
    38   33   40 1   
    39   34   35 1   
    40   34   36 1   
    41   41   42 1   
    42   41   45 1   
    43   42   43 1   
    44   42   46 1   
    45   42   47 1   
    46   43   44 2   
    47   43   48 1   
    48   48   49 1   
    49   48   56 1   
    50   49   50 1   
    51   49   52 1   
    52   49   57 1   
    53   50   51 2   
    54   50   62 1   
    55   52   53 1   
    56   52   58 1   
    57   52   59 1   
    58   53   54 1   
    59   53   55 2   
    60   54   60 1   
    61   54   61 1   
    62   62   63 1   
    63   62   66 1   
    64   63   64 1   
    65   63   67 1   
    66   63   68 1   
    67   64   65 2   
    68   64   69 1   
    69   69   70 1   
    70   69   76 1   
    71   70   71 1   
    72   70   73 1   
    73   70   77 1   
    74   71   72 2   
    75   71   83 1   
    76   73   74 1   
    77   73   75 1   
    78   73   78 1   
    79   74   80 1   
    80   74   81 1   
    81   74   82 1   
    82   75   79 1   
    83   83   84 1   
    84   83   91 1   
    85   84   85 1   
    86   84   87 1   
    87   84   92 1   
    88   85   86 2   
    89   85  102 1   
    90   87   88 1   
    91   87   89 1   
    92   87   93 1   
    93   88   90 1   
    94   88   94 1   
    95   88   95 1   
    96   89   96 1   
    97   89   97 1   
    98   89   98 1   
    99   90   99 1   
   100   90  100 1   
   101   90  101 1   
   102  102  103 1   
   103  102  110 1   
   104  103  104 1   
   105  103  106 1   
   106  103  111 1   
   107  104  105 2   
   108  104  114 1   
   109  106  107 1   
   110  106  112 1   
   111  106  113 1   
   112  107  108 1   
   113  107  109 1   
   114  114  115 1   
   115  114  125 1   
   116  115  116 1   
   117  115  118 1   
   118  115  126 1   
   119  116  117 2   
   120  116  134 1   
   121  118  119 1   
   122  118  127 1   
   123  118  128 1   
   124  119  120 ar  
   125  119  121 ar  
   126  120  122 ar  
   127  120  129 1   
   128  121  123 ar  
   129  121  130 1   
   130  122  124 ar  
   131  122  131 1   
   132  123  124 ar  
   133  123  132 1   
   134  124  133 1   
   135  134  135 1   
   136  134  140 1   
   137  135  136 1   
   138  135  138 1   
   139  135  141 1   
   140  136  137 2   
   141  136  148 1   
   142  138  139 1   
   143  138  142 1   
   144  138  143 1   
   145  139  140 1   
   146  139  144 1   
   147  139  145 1   
   148  140  146 1   
   149  140  147 1   
   150  148  149 1   
   151  148  157 1   
   152  149  150 1   
   153  149  152 1   
   154  149  158 1   
   155  150  151 2   
   156  150  163 1   
   157  152  153 1   
   158  152  159 1   
   159  152  160 1   
   160  153  154 1   
   161  153  161 1   
   162  153  162 1   
   163  154  155 1   
   164  154  156 1   
   165  163  164 1   
   166  163  168 1   
   167  164  165 1   
   168  164  166 1   
   169  164  167 1   
   170  170  171 1   
   171  170  172 1   
   172  173  174 1   
   173  173  175 1   
   174  176  177 1   
   175  176  178 1   
@<TRIPOS>SUBSTRUCTURE
     1 MOL         1 TEMP              0 ****  ****    0 ROOT
