@<TRIPOS>MOLECULE
MOL
  198   191     1     0     0
SMALL
resp


@<TRIPOS>ATOM
      1 C1         -4.9730    6.0310    1.2270 c3        1 MOL     -0.446032
      2 C2         -6.4360    5.7740    1.1160 c         1 MOL      0.714056
      3 O1         -7.1490    6.5210    0.4660 o         1 MOL     -0.572930
      4 H1         -4.4980    5.8390    0.2660 hc        1 MOL      0.117934
      5 H2         -4.8070    7.0690    1.5130 hc        1 MOL      0.117934
      6 H3         -4.5450    5.3720    1.9820 hc        1 MOL      0.117934
      7 N1         -6.9290    4.6690    1.6980 n         1 MOL     -0.707698
      8 C3         -8.2600    4.1530    1.3060 c3        1 MOL      0.364105
      9 C4         -8.3640    3.5950   -0.1210 c         1 MOL      0.413774
     10 O2         -7.4040    3.6520   -0.9130 o         1 MOL     -0.514887
     11 C5         -9.4370    5.1160    1.7670 c3        1 MOL     -0.326179
     12 C6        -10.8040    4.4880    2.1520 c         1 MOL      0.686927
     13 O3        -11.6080    5.1610    2.7540 o         1 MOL     -0.684106
     14 O4        -11.0200    3.2610    1.8730 o         1 MOL     -0.684106
     15 H4         -6.3380    4.0100    2.1810 hn        1 MOL      0.360008
     16 H5         -8.3830    3.2240    1.8780 h1        1 MOL     -0.000078
     17 H6         -9.6020    5.8100    0.9430 hc        1 MOL      0.086120
     18 H7         -9.1990    5.7080    2.6520 hc        1 MOL      0.086120
     19 N2         -9.4960    3.0340   -0.4990 n         1 MOL     -0.089174
     20 C7         -9.6630    2.0980   -1.6320 c3        1 MOL     -0.043745
     21 C8         -8.6280    0.9380   -1.8470 c         1 MOL      0.624823
     22 O5         -8.7760    0.0900   -2.6820 o         1 MOL     -0.564878
     23 C9         -9.9380    2.7500   -2.9880 c3        1 MOL     -0.064089
     24 C10       -10.8260    3.9750   -2.9090 c3        1 MOL      0.048691
     25 C11       -12.2010    3.5360   -2.4830 c3        1 MOL     -0.312776
     26 C12       -13.0580    4.7470   -2.1270 c3        1 MOL      0.211219
     27 N3        -14.4090    4.3450   -1.5680 n4        1 MOL     -0.459587
     28 H8        -10.2060    2.8990    0.2110 hn        1 MOL      0.059433
     29 H9        -10.5390    1.4930   -1.4120 h1        1 MOL      0.061036
     30 H10       -10.2950    2.0550   -3.7430 hc        1 MOL      0.048004
     31 H11        -8.9460    3.0410   -3.3400 hc        1 MOL      0.048004
     32 H12       -10.8670    4.4890   -3.8670 hc        1 MOL      0.006248
     33 H13       -10.4720    4.6110   -2.0960 hc        1 MOL      0.006248
     34 H14       -12.0630    3.0100   -1.5420 hc        1 MOL      0.107013
     35 H15       -12.6540    2.9520   -3.2890 hc        1 MOL      0.107013
     36 H16       -13.2740    5.3800   -2.9870 hx        1 MOL      0.054350
     37 H17       -12.6350    5.4610   -1.4160 hx        1 MOL      0.054350
     38 H18       -15.0910    4.0730   -2.2570 hn        1 MOL      0.345473
     39 H19       -14.2580    3.5780   -0.9290 hn        1 MOL      0.345473
     40 H20       -14.8160    5.1620   -1.1420 hn        1 MOL      0.345473
     41 N4         -7.6890    0.8740   -0.9120 n         1 MOL     -0.636074
     42 C13        -6.7160   -0.2570   -0.7450 c3        1 MOL      0.328760
     43 C14        -6.3110   -0.5600    0.6910 c         1 MOL      0.552539
     44 O6         -5.9450    0.4010    1.3840 o         1 MOL     -0.584662
     45 C15        -5.5210    0.1640   -1.6190 c3        1 MOL     -0.067209
     46 C16        -4.4150   -0.8760   -1.7980 c         1 MOL      0.572520
     47 O7         -4.6220   -2.0670   -1.5650 o         1 MOL     -0.693558
     48 O8         -3.2640   -0.5200   -2.0060 o         1 MOL     -0.693558
     49 H21        -7.5720    1.6500   -0.2750 hn        1 MOL      0.243027
     50 H22        -7.1410   -1.1540   -1.2140 h1        1 MOL      0.003896
     51 H23        -5.0560    1.0810   -1.2530 hc        1 MOL      0.044178
     52 H24        -5.8710    0.4900   -2.6030 hc        1 MOL      0.044178
     53 N5         -6.3480   -1.7640    1.2300 n         1 MOL     -0.448633
     54 C17        -7.1080   -2.9570    0.7380 c3        1 MOL     -0.034910
     55 C18        -6.3510   -4.2810    0.7950 c         1 MOL      0.434783
     56 O9         -6.8690   -5.3520    1.3720 o         1 MOL     -0.556283
     57 H25        -6.0350   -1.8700    2.1870 hn        1 MOL      0.305979
     58 H26        -7.5180   -2.8010   -0.2650 h1        1 MOL      0.086762
     59 H27        -7.9880   -3.0710    1.3520 h1        1 MOL      0.086762
     60 N6         -5.1110   -4.3050    0.2880 n         1 MOL     -0.028925
     61 C19        -4.1630   -5.4830    0.3250 c3        1 MOL     -0.243496
     62 C20        -2.6720   -4.8760    0.3020 c         1 MOL      0.266271
     63 O10        -2.3090   -3.8230   -0.1660 o         1 MOL     -0.427990
     64 C21        -4.3580   -6.3780   -0.8790 c3        1 MOL      0.291441
     65 C22        -4.6760   -5.6910   -2.1690 c         1 MOL      0.454531
     66 O11        -3.7470   -5.0430   -2.7830 o         1 MOL     -0.617240
     67 O12        -5.8670   -5.7510   -2.5090 o         1 MOL     -0.617240
     68 H28        -4.7240   -3.3990    0.0570 hn        1 MOL      0.110535
     69 H29        -4.2770   -6.0590    1.2460 h1        1 MOL      0.086246
     70 H30        -5.1150   -7.1230   -0.6250 hc        1 MOL     -0.068646
     71 H31        -3.4280   -6.9230   -1.0540 hc        1 MOL     -0.068646
     72 N7         -1.8040   -5.7370    0.8170 n         1 MOL     -0.034307
     73 C23        -0.3390   -5.5360    1.0500 c3        1 MOL     -0.553177
     74 C24         0.1260   -4.5030    2.1270 c         1 MOL      0.728380
     75 O13         1.3210   -4.4490    2.4470 o         1 MOL     -0.533827
     76 H32        -2.2150   -6.5660    1.2230 hn        1 MOL      0.226539
     77 H33         0.0640   -5.2240    0.0860 h1        1 MOL      0.172200
     78 H34        -0.0750   -6.5340    1.3750 h1        1 MOL      0.172200
     79 N8         -0.8850   -3.7950    2.6630 n         1 MOL     -0.469827
     80 C25        -0.6220   -2.5750    3.4840 c3        1 MOL     -0.171326
     81 C26        -0.1700   -1.3550    2.5540 c         1 MOL      0.323928
     82 O14        -0.4490   -1.3400    1.3320 o         1 MOL     -0.413345
     83 C27        -1.7890   -2.2390    4.3970 c3        1 MOL      0.460161
     84 C28        -3.0260   -1.6120    3.6970 c3        1 MOL     -0.322734
     85 O15        -2.2370   -3.3980    5.1420 oh        1 MOL     -0.616316
     86 H35        -1.8530   -4.0470    2.5320 hn        1 MOL      0.301626
     87 H36         0.1520   -2.8170    4.1980 h1        1 MOL      0.082056
     88 H37        -1.4190   -1.5380    5.1430 h1        1 MOL     -0.047558
     89 H38        -1.4680   -3.6890    5.6460 ho        1 MOL      0.386402
     90 H39        -2.6540   -0.7260    3.1920 hc        1 MOL      0.099118
     91 H40        -3.5860   -2.3180    3.0820 hc        1 MOL      0.099118
     92 H41        -3.8030   -1.2780    4.3890 hc        1 MOL      0.099118
     93 N9          0.6340   -0.5010    3.1070 n         1 MOL     -0.008068
     94 C29         0.9900    0.8310    2.4430 c3        1 MOL     -0.437739
     95 C30         2.3660    0.8640    1.8010 c         1 MOL      0.548693
     96 O16         2.7790    1.8620    1.2320 o         1 MOL     -0.509119
     97 C31         0.6670    2.0500    3.3590 c3        1 MOL      0.301493
     98 C32         1.8660    2.2890    4.3290 c3        1 MOL      0.168444
     99 C33        -0.6490    1.9290    4.2500 c3        1 MOL     -0.284598
    100 C34         1.8150    3.5700    5.1070 c3        1 MOL     -0.393917
    101 H42         1.0660   -0.6860    4.0060 hn        1 MOL      0.210230
    102 H43         0.2580    0.9920    1.6440 h1        1 MOL      0.195608
    103 H44         0.5340    2.9830    2.8150 hc        1 MOL      0.002660
    104 H45         2.7990    2.3760    3.7770 hc        1 MOL     -0.011109
    105 H46         1.9880    1.4760    5.0600 hc        1 MOL     -0.011109
    106 H47        -1.5040    1.8610    3.5730 hc        1 MOL      0.058290
    107 H48        -0.5650    1.1090    4.9640 hc        1 MOL      0.058290
    108 H49        -0.8230    2.8690    4.7670 hc        1 MOL      0.058290
    109 H50         2.7480    3.7270    5.6500 hc        1 MOL      0.094517
    110 H51         1.7330    4.3170    4.3080 hc        1 MOL      0.094517
    111 H52         0.9660    3.6420    5.7820 hc        1 MOL      0.094517
    112 N10         3.1990   -0.1250    2.0580 n         1 MOL     -0.510504
    113 C35         4.1970   -0.4400    1.0060 c3        1 MOL     -0.032134
    114 C36         5.3850   -1.2500    1.5550 c         1 MOL      0.692403
    115 O17         5.2170   -1.8990    2.6120 o         1 MOL     -0.511576
    116 C37         3.4820   -1.4030   -0.1130 c3        1 MOL      0.330267
    117 C38         2.9470   -2.6340    0.5690 c3        1 MOL     -0.331522
    118 O18         2.5530   -0.7430   -0.8190 oh        1 MOL     -0.523422
    119 H53         2.9580   -0.8680    2.7000 hn        1 MOL      0.255560
    120 H54         4.5010    0.4670    0.4910 h1        1 MOL      0.102835
    121 H55         4.2390   -1.7570   -0.8140 h1        1 MOL     -0.037750
    122 H56         2.9170   -0.5370   -1.6870 ho        1 MOL      0.380266
    123 H57         3.7500   -3.1060    1.1310 hc        1 MOL      0.087861
    124 H58         2.0860   -2.4130    1.1990 hc        1 MOL      0.087861
    125 H59         2.5280   -3.3900   -0.0970 hc        1 MOL      0.087861
    126 N11         6.5050   -1.2960    0.8160 n         1 MOL     -0.698899
    127 C39         7.7190   -2.1000    1.1470 c3        1 MOL     -0.044696
    128 C40         8.9430   -1.2130    1.2950 c         1 MOL      0.683332
    129 O19         9.6670   -1.2110    2.2910 o         1 MOL     -0.567251
    130 C41         7.9310   -3.2960    0.1050 c3        1 MOL      0.362387
    131 C42         9.1260   -4.2660    0.4240 c3        1 MOL     -0.224619
    132 O20         8.0790   -2.9390   -1.2250 oh        1 MOL     -0.609301
    133 H60         6.5310   -0.7340   -0.0140 hn        1 MOL      0.311088
    134 H61         7.5770   -2.4700    2.1630 h1        1 MOL      0.088783
    135 H62         7.1000   -3.9930    0.0640 h1        1 MOL      0.004106
    136 H63         7.3110   -3.3390   -1.6420 ho        1 MOL      0.401081
    137 H64        10.0310   -3.6730    0.4890 hc        1 MOL      0.053860
    138 H65         8.9130   -4.7540    1.3730 hc        1 MOL      0.053860
    139 H66         9.1440   -4.9950   -0.3870 hc        1 MOL      0.053860
    140 N12         9.0730   -0.4400    0.2490 n         1 MOL     -0.350312
    141 C43        10.1320    0.5490    0.0780 c3        1 MOL     -0.059099
    142 C44         9.7910    1.5650   -1.0330 c         1 MOL      0.443446
    143 O21         9.0520    1.2220   -1.9800 o         1 MOL     -0.467219
    144 C45        11.4570   -0.1750   -0.2260 c3        1 MOL     -0.326563
    145 C46        12.6470    0.7450   -0.5400 c3        1 MOL      0.266500
    146 C47        13.9600   -0.0740   -0.2360 c3        1 MOL     -0.257204
    147 C48        15.2060    0.5600   -0.9150 c3        1 MOL     -0.066320
    148 N13        15.1680    2.0180   -0.7030 n4        1 MOL     -0.303924
    149 H67         8.5240   -0.6740   -0.5700 hn        1 MOL      0.249214
    150 H68        10.2670    1.1370    0.9940 h1        1 MOL      0.082720
    151 H69        11.2530   -0.8010   -1.0940 hc        1 MOL      0.121630
    152 H70        11.7480   -0.7670    0.6500 hc        1 MOL      0.121630
    153 H71        12.5180    1.6190    0.0900 hc        1 MOL      0.026966
    154 H72        12.6120    1.0600   -1.5790 hc        1 MOL      0.026966
    155 H73        13.8710   -1.0490   -0.7160 hc        1 MOL      0.077899
    156 H74        14.1530   -0.1730    0.8310 hc        1 MOL      0.077899
    157 H75        15.1120    0.3890   -1.9800 hx        1 MOL      0.117769
    158 H76        16.1060    0.1750   -0.4410 hx        1 MOL      0.117769
    159 H77        16.0390    2.3440   -1.0910 hn        1 MOL      0.299175
    160 H78        14.4960    2.4540   -1.3110 hn        1 MOL      0.299175
    161 H79        14.9190    2.2300    0.2550 hn        1 MOL      0.299175
    162 N14        10.1400    2.9000   -0.8930 n         1 MOL     -0.377705
    163 C49         9.5710    3.9370   -1.7940 c3        1 MOL      0.104010
    164 C50         8.0420    4.1870   -1.5840 c         1 MOL      0.422156
    165 O22         7.3760    3.9840   -2.5860 o         1 MOL     -0.528000
    166 C51        10.4680    5.2320   -1.9060 c3        1 MOL     -0.014315
    167 C52        11.7690    5.1210   -2.7780 c3        1 MOL     -0.304882
    168 C53        12.7740    4.1280   -2.1760 c         1 MOL      0.793276
    169 O23        13.2750    3.1990   -2.8250 o         1 MOL     -0.758425
    170 O24        13.1880    4.2640   -0.9560 o         1 MOL     -0.758425
    171 H80        10.7380    3.1770   -0.1180 hn        1 MOL      0.258201
    172 H81         9.6940    3.4530   -2.7680 h1        1 MOL      0.092263
    173 H82        10.7720    5.5850   -0.9190 hc        1 MOL      0.025927
    174 H83         9.8810    6.0420   -2.3660 hc        1 MOL      0.025927
    175 H84        12.2520    6.0960   -2.8590 hc        1 MOL      0.098237
    176 H85        11.5390    4.7020   -3.7620 hc        1 MOL      0.098237
    177 N15         7.4290    4.5340   -0.4350 n         1 MOL     -0.388137
    178 C54         8.2110    5.0310    0.7540 c3        1 MOL     -0.002153
    179 H86         7.7800    4.6210    1.6670 h1        1 MOL      0.044599
    180 H87         9.2490    4.7110    0.6660 h1        1 MOL      0.044599
    181 H88         8.1670    6.1190    0.7890 h1        1 MOL      0.044599
    182 H89         6.4220    4.4550   -0.4430 hn        1 MOL      0.317574
    183 Ca1        -2.3230   -2.9250   -2.6580 Ca        1 MOL      1.643510
    184 O25        -1.3740   -4.0740   -4.8880 oh        1 MOL     -0.781942
    185 H90        -0.5180   -4.4170   -5.1570 ho        1 MOL      0.387460
    186 H91        -1.8110   -3.8720   -5.7190 ho        1 MOL      0.387460
    187 O26        -0.2440   -4.6830   -2.2540 oh        1 MOL     -0.781942
    188 H92         0.6800   -4.6020   -2.0420 ho        1 MOL      0.387460
    189 H93        -0.4070   -5.6280   -2.2700 ho        1 MOL      0.387460
    190 O27        -0.2510   -1.7490   -1.5660 oh        1 MOL     -0.781942
    191 H94        -0.3580   -1.2830   -0.7430 ho        1 MOL      0.387460
    192 H95         0.6610   -2.0560   -1.5460 ho        1 MOL      0.387460
    193 O28        -4.2570   -2.8250   -4.5630 oh        1 MOL     -0.781942
    194 H96        -4.5830   -2.4760   -5.3890 ho        1 MOL      0.387460
    195 H97        -4.4430   -3.7610   -4.6080 ho        1 MOL      0.387460
    196 O29        -1.2290   -1.0100   -4.2350 oh        1 MOL     -0.781942
    197 H98        -1.3930   -0.1160   -3.9470 ho        1 MOL      0.387460
    198 H99        -1.3240   -0.9760   -5.1880 ho        1 MOL      0.387460
@<TRIPOS>BOND
     1    1    2 1   
     2    1    4 1   
     3    1    5 1   
     4    1    6 1   
     5    2    3 2   
     6    2    7 1   
     7    7    8 1   
     8    7   15 1   
     9    8    9 1   
    10    8   11 1   
    11    8   16 1   
    12    9   10 2   
    13    9   19 1   
    14   11   12 1   
    15   11   17 1   
    16   11   18 1   
    17   12   13 1   
    18   12   14 1   
    19   19   20 1   
    20   19   28 1   
    21   20   21 1   
    22   20   23 1   
    23   20   29 1   
    24   21   22 2   
    25   21   41 1   
    26   23   24 1   
    27   23   30 1   
    28   23   31 1   
    29   24   25 1   
    30   24   32 1   
    31   24   33 1   
    32   25   26 1   
    33   25   34 1   
    34   25   35 1   
    35   26   27 1   
    36   26   36 1   
    37   26   37 1   
    38   27   38 1   
    39   27   39 1   
    40   27   40 1   
    41   41   42 1   
    42   41   49 1   
    43   42   43 1   
    44   42   45 1   
    45   42   50 1   
    46   43   44 2   
    47   43   53 1   
    48   45   46 1   
    49   45   51 1   
    50   45   52 1   
    51   46   47 1   
    52   46   48 1   
    53   53   54 1   
    54   53   57 1   
    55   54   55 1   
    56   54   58 1   
    57   54   59 1   
    58   55   56 2   
    59   55   60 1   
    60   60   61 1   
    61   60   68 1   
    62   61   62 1   
    63   61   64 1   
    64   61   69 1   
    65   62   63 2   
    66   62   72 1   
    67   64   65 1   
    68   64   70 1   
    69   64   71 1   
    70   65   66 1   
    71   65   67 1   
    72   72   73 1   
    73   72   76 1   
    74   73   74 1   
    75   73   77 1   
    76   73   78 1   
    77   74   75 2   
    78   74   79 1   
    79   79   80 1   
    80   79   86 1   
    81   80   81 1   
    82   80   83 1   
    83   80   87 1   
    84   81   82 2   
    85   81   93 1   
    86   83   84 1   
    87   83   85 1   
    88   83   88 1   
    89   84   90 1   
    90   84   91 1   
    91   84   92 1   
    92   85   89 1   
    93   93   94 1   
    94   93  101 1   
    95   94   95 1   
    96   94   97 1   
    97   94  102 1   
    98   95   96 2   
    99   95  112 1   
   100   97   98 1   
   101   97   99 1   
   102   97  103 1   
   103   98  100 1   
   104   98  104 1   
   105   98  105 1   
   106   99  106 1   
   107   99  107 1   
   108   99  108 1   
   109  100  109 1   
   110  100  110 1   
   111  100  111 1   
   112  112  113 1   
   113  112  119 1   
   114  113  114 1   
   115  113  116 1   
   116  113  120 1   
   117  114  115 2   
   118  114  126 1   
   119  116  117 1   
   120  116  118 1   
   121  116  121 1   
   122  117  123 1   
   123  117  124 1   
   124  117  125 1   
   125  118  122 1   
   126  126  127 1   
   127  126  133 1   
   128  127  128 1   
   129  127  130 1   
   130  127  134 1   
   131  128  129 2   
   132  128  140 1   
   133  130  131 1   
   134  130  132 1   
   135  130  135 1   
   136  131  137 1   
   137  131  138 1   
   138  131  139 1   
   139  132  136 1   
   140  140  141 1   
   141  140  149 1   
   142  141  142 1   
   143  141  144 1   
   144  141  150 1   
   145  142  143 2   
   146  142  162 1   
   147  144  145 1   
   148  144  151 1   
   149  144  152 1   
   150  145  146 1   
   151  145  153 1   
   152  145  154 1   
   153  146  147 1   
   154  146  155 1   
   155  146  156 1   
   156  147  148 1   
   157  147  157 1   
   158  147  158 1   
   159  148  159 1   
   160  148  160 1   
   161  148  161 1   
   162  162  163 1   
   163  162  171 1   
   164  163  164 1   
   165  163  166 1   
   166  163  172 1   
   167  164  165 2   
   168  164  177 1   
   169  166  167 1   
   170  166  173 1   
   171  166  174 1   
   172  167  168 1   
   173  167  175 1   
   174  167  176 1   
   175  168  169 1   
   176  168  170 1   
   177  177  178 1   
   178  177  182 1   
   179  178  179 1   
   180  178  180 1   
   181  178  181 1   
   182  184  185 1   
   183  184  186 1   
   184  187  188 1   
   185  187  189 1   
   186  190  191 1   
   187  190  192 1   
   188  193  194 1   
   189  193  195 1   
   190  196  197 1   
   191  196  198 1   
@<TRIPOS>SUBSTRUCTURE
     1 MOL         1 TEMP              0 ****  ****    0 ROOT
