@<TRIPOS>MOLECULE
MOL
  182   178     1     0     0
SMALL
resp


@<TRIPOS>ATOM
      1 C1          0.3020   -3.3250    6.2180 c3        1 MOL     -0.427650
      2 C2          0.4220   -3.2070    4.6960 c         1 MOL      0.740652
      3 O1         -0.6070   -3.2330    4.0170 o         1 MOL     -0.558661
      4 H1         -0.5580   -2.7500    6.5600 hc        1 MOL      0.120620
      5 H2          0.1690   -4.3720    6.4920 hc        1 MOL      0.120620
      6 H3          1.2060   -2.9390    6.6860 hc        1 MOL      0.120620
      7 N1          1.6370   -3.1250    4.1810 n         1 MOL     -0.549977
      8 C3          2.0580   -2.9930    2.7830 c3        1 MOL      0.008752
      9 C4          2.0010   -4.2010    1.8940 c         1 MOL      0.638630
     10 O2          2.1740   -5.3190    2.3760 o         1 MOL     -0.543359
     11 C5          3.4430   -2.3220    2.8390 c3        1 MOL      0.157417
     12 C6          3.7080   -1.4220    1.6590 c         1 MOL      0.229130
     13 O3          4.3910   -0.4110    1.8110 o         1 MOL     -0.549972
     14 O4          3.3990   -1.7540    0.5280 o         1 MOL     -0.549972
     15 H4          2.4010   -3.0170    4.8350 hn        1 MOL      0.317804
     16 H5          1.4310   -2.2600    2.2790 h1        1 MOL     -0.155579
     17 H6          4.2240   -3.0530    3.0030 hc        1 MOL      0.015202
     18 H7          3.4200   -1.7430    3.7640 hc        1 MOL      0.015202
     19 N2          1.7730   -4.0300    0.5430 n         1 MOL     -0.347994
     20 C7          1.7460   -5.1750   -0.4060 c3        1 MOL      0.053825
     21 C8          3.1310   -5.2590   -1.1120 c         1 MOL      0.362490
     22 O5          3.7050   -6.3340   -1.2410 o         1 MOL     -0.521128
     23 C9          0.4770   -5.0320   -1.3710 c3        1 MOL      0.011296
     24 C10         0.0200   -6.3680   -2.0670 c3        1 MOL     -0.108294
     25 C11        -1.4000   -6.2510   -2.5540 c3        1 MOL     -0.017482
     26 C12        -1.9830   -7.6230   -2.8720 c3        1 MOL      0.054795
     27 N3         -3.2850   -7.4310   -3.5300 n4        1 MOL     -0.291438
     28 H8          1.9980   -3.0930    0.2270 hn        1 MOL      0.209556
     29 H9          1.6000   -6.1240    0.0990 h1        1 MOL      0.088174
     30 H10         0.6230   -4.2540   -2.1130 hc        1 MOL      0.011945
     31 H11        -0.3730   -4.7530   -0.7430 hc        1 MOL      0.011945
     32 H12         0.0080   -7.1460   -1.2990 hc        1 MOL      0.049715
     33 H13         0.6020   -6.7960   -2.8810 hc        1 MOL      0.049715
     34 H14        -1.4570   -5.5440   -3.3760 hc        1 MOL      0.036726
     35 H15        -1.9520   -5.7740   -1.7380 hc        1 MOL      0.036726
     36 H16        -2.0750   -8.2500   -1.9810 hx        1 MOL      0.084271
     37 H17        -1.3300   -8.2510   -3.4670 hx        1 MOL      0.084271
     38 H18        -3.8980   -8.2030   -3.3290 hn        1 MOL      0.251466
     39 H19        -3.8400   -6.6260   -3.2400 hn        1 MOL      0.251466
     40 H20        -3.2190   -7.3320   -4.5330 hn        1 MOL      0.251466
     41 N4          3.7100   -4.1210   -1.5040 n         1 MOL     -0.111163
     42 C13         5.0370   -4.0020   -2.1710 c3        1 MOL      0.114814
     43 C14         6.1860   -3.6660   -1.1910 c         1 MOL      0.379625
     44 O6          7.3260   -4.0070   -1.5000 o         1 MOL     -0.518464
     45 C15         5.1000   -2.9190   -3.2310 c3        1 MOL     -0.367229
     46 C16         4.4290   -1.6750   -2.6620 c         1 MOL      0.868638
     47 O7          5.1050   -0.8600   -1.9510 o         1 MOL     -0.784538
     48 O8          3.1880   -1.6110   -2.7540 o         1 MOL     -0.784538
     49 H21         3.1780   -3.2610   -1.3810 hn        1 MOL      0.008431
     50 H22         5.3080   -4.9130   -2.7010 h1        1 MOL      0.098844
     51 H23         4.6770   -3.2640   -4.1720 hc        1 MOL      0.111903
     52 H24         6.1060   -2.5120   -3.3350 hc        1 MOL      0.111903
     53 N5          5.8690   -3.0990    0.0050 n         1 MOL     -0.054094
     54 C17         6.8310   -2.7560    1.0270 c3        1 MOL     -0.416403
     55 C18         7.3960   -1.3390    0.9710 c         1 MOL      0.662817
     56 O9          8.3340   -1.1920    1.7340 o         1 MOL     -0.579844
     57 H25         4.9420   -2.7040    0.0540 hn        1 MOL      0.065087
     58 H26         7.7230   -3.3560    0.8460 h1        1 MOL      0.174310
     59 H27         6.2870   -2.8510    1.9720 h1        1 MOL      0.174310
     60 N6          6.9120   -0.4210    0.1540 n         1 MOL     -0.291949
     61 C19         7.3250    1.0310    0.1970 c3        1 MOL      0.018740
     62 C20         6.2810    2.1000    0.1740 c         1 MOL      0.523832
     63 O10         5.2330    1.7840   -0.2840 o         1 MOL     -0.466535
     64 C21         8.4160    1.1650   -0.8960 c3        1 MOL     -0.248284
     65 C22         7.9550    1.6850   -2.2540 c         1 MOL      0.626566
     66 N7          6.9760    1.0670   -2.9430 n         1 MOL     -0.740429
     67 O11         8.4300    2.7220   -2.6770 o         1 MOL     -0.589120
     68 H28         6.1410   -0.6630   -0.4470 hn        1 MOL      0.264968
     69 H29         7.9010    1.1390    1.1200 h1        1 MOL      0.048149
     70 H30         8.8200    0.1660   -1.0260 hc        1 MOL      0.092669
     71 H31         9.1870    1.7890   -0.4470 hc        1 MOL      0.092669
     72 H32         6.4240    0.3360   -2.5060 hn        1 MOL      0.350025
     73 H33         6.7260    1.5410   -3.7980 hn        1 MOL      0.350025
     74 N8          6.6850    3.3600    0.3920 n         1 MOL     -0.342424
     75 C23         5.8370    4.5480    0.2380 c3        1 MOL     -0.247006
     76 C24         4.4730    4.5680    1.0540 c         1 MOL      0.645504
     77 O12         4.4600    4.3880    2.2370 o         1 MOL     -0.512450
     78 H34         7.6120    3.4680    0.7770 hn        1 MOL      0.304939
     79 H35         5.6310    4.6270   -0.8310 h1        1 MOL      0.122379
     80 H36         6.4200    5.4370    0.4810 h1        1 MOL      0.122379
     81 N9          3.4300    4.7370    0.2930 n         1 MOL     -0.547032
     82 C25         2.0640    4.5320    0.8010 c3        1 MOL     -0.019730
     83 C26         1.7940    3.0870    1.1930 c         1 MOL      0.876009
     84 O13         2.5330    2.1770    0.8490 o         1 MOL     -0.650144
     85 C27         1.1900    5.1050   -0.3840 c3        1 MOL     -0.304961
     86 C28         1.4550    6.5570   -0.8330 ca        1 MOL      0.073906
     87 C29         1.2980    7.5510    0.1630 ca        1 MOL     -0.122626
     88 C30         1.8560    6.9250   -2.1210 ca        1 MOL     -0.122626
     89 C31         1.5050    8.8770   -0.1830 ca        1 MOL     -0.306575
     90 C32         1.9000    8.2580   -2.4880 ca        1 MOL     -0.306575
     91 C33         1.7020    9.2260   -1.5560 ca        1 MOL      0.421074
     92 O14         1.8680   10.5000   -1.8760 oh        1 MOL     -0.517784
     93 H37         3.5870    4.9590   -0.6780 hn        1 MOL      0.293036
     94 H38         2.0180    5.1270    1.7090 h1        1 MOL      0.109436
     95 H39         0.1220    5.1340   -0.1670 hc        1 MOL      0.115180
     96 H40         1.3720    4.5420   -1.2970 hc        1 MOL      0.115180
     97 H41         1.1490    7.3270    1.2040 ha        1 MOL      0.131853
     98 H42         2.0850    6.1510   -2.8360 ha        1 MOL      0.131853
     99 H43         1.4020    9.6260    0.5940 ha        1 MOL      0.161224
    100 H44         2.0690    8.6600   -3.4780 ha        1 MOL      0.161224
    101 H45         2.0840   11.1200   -1.1640 ho        1 MOL      0.392486
    102 N10         0.6090    2.9160    1.7870 n         1 MOL     -0.828925
    103 C34         0.1550    1.6670    2.3600 c3        1 MOL      0.433612
    104 C35        -0.0380    0.5640    1.3990 c         1 MOL      0.123494
    105 O15         0.9080    0.0900    0.7650 o         1 MOL     -0.091192
    106 C36         0.9860    1.2940    3.6130 c3        1 MOL      0.085557
    107 C37         0.3730    0.1040    4.4920 c3        1 MOL      0.042678
    108 C38         1.4040    2.4520    4.5420 c3        1 MOL     -0.335195
    109 C39        -1.0360    0.3770    5.1780 c3        1 MOL     -0.349805
    110 H46         0.0630    3.7240    2.0490 hn        1 MOL      0.346630
    111 H47        -0.7940    1.8430    2.8700 h1        1 MOL     -0.002407
    112 H48         1.9420    0.9800    3.1850 hc        1 MOL      0.054504
    113 H49         1.1580   -0.2400    5.1630 hc        1 MOL      0.028235
    114 H50         0.1350   -0.6460    3.7400 hc        1 MOL      0.028235
    115 H51         1.5680    3.3780    3.9930 hc        1 MOL      0.079893
    116 H52         0.6590    2.5900    5.3220 hc        1 MOL      0.079893
    117 H53         2.3970    2.2100    4.9180 hc        1 MOL      0.079893
    118 H54        -1.3800   -0.4760    5.7530 hc        1 MOL      0.090392
    119 H55        -0.9470    1.2090    5.8720 hc        1 MOL      0.090392
    120 H56        -1.7390    0.6400    4.3910 hc        1 MOL      0.090392
    121 N11        -1.2980    0.2610    1.2260 n         1 MOL     -0.400359
    122 C40        -1.6750   -0.9410    0.3530 c3        1 MOL     -0.035206
    123 C41        -3.1010   -0.9510   -0.3250 c         1 MOL      0.659400
    124 O16        -3.3800   -1.7520   -1.1780 o         1 MOL     -0.583680
    125 C42        -1.5950   -2.1120    1.2830 c3        1 MOL      0.371164
    126 O17        -2.2490   -1.8910    2.5280 oh        1 MOL     -0.647865
    127 H57        -1.9770    0.8490    1.6860 hn        1 MOL      0.271031
    128 H58        -0.9660   -1.0800   -0.4650 h1        1 MOL      0.001130
    129 H59        -0.5170   -2.2380    1.3930 h1        1 MOL     -0.005616
    130 H60        -1.7900   -3.0940    0.8440 h1        1 MOL     -0.005616
    131 H61        -1.7980   -2.3720    3.2260 ho        1 MOL      0.381964
    132 N12        -4.0370   -0.1750    0.2300 n         1 MOL     -0.641517
    133 C43        -5.4720   -0.1650   -0.1430 c3        1 MOL      0.147789
    134 C44        -5.7420    0.4500   -1.5660 c         1 MOL      0.595651
    135 O18        -4.9540    1.2810   -1.9940 o         1 MOL     -0.578392
    136 C45        -6.2770    0.5680    0.9670 c3        1 MOL     -0.242814
    137 H62        -3.7390    0.3600    1.0350 hn        1 MOL      0.347585
    138 H63        -5.7290   -1.2160   -0.2390 h1        1 MOL      0.089394
    139 H64        -6.0940    1.6370    0.8690 hc        1 MOL      0.082927
    140 H65        -7.3150    0.2430    0.9810 hc        1 MOL      0.082927
    141 H66        -5.8580    0.3650    1.9590 hc        1 MOL      0.082927
    142 N13        -6.8520    0.3320   -2.2370 n         1 MOL     -0.538305
    143 C46        -8.1170   -0.3110   -1.9560 c3        1 MOL      0.258409
    144 C47        -9.1910    0.5720   -2.5510 c         1 MOL      0.490118
    145 O19        -8.9990    1.2160   -3.5970 o         1 MOL     -0.558738
    146 C48        -8.2440   -1.7480   -2.5330 c3        1 MOL     -0.338075
    147 H67        -6.8230    0.7630   -3.1450 hn        1 MOL      0.306282
    148 H68        -8.2310   -0.3840   -0.8700 h1        1 MOL      0.009237
    149 H69        -9.2190   -2.1770   -2.3250 hc        1 MOL      0.095433
    150 H70        -8.2310   -1.7730   -3.6190 hc        1 MOL      0.095433
    151 H71        -7.4800   -2.3780   -2.0900 hc        1 MOL      0.095433
    152 N14       -10.3580    0.7010   -1.9660 n         1 MOL     -0.421915
    153 C49       -10.7390    0.4590   -0.6030 c3        1 MOL     -0.077863
    154 C50       -10.0750    1.4240    0.4050 c         1 MOL      0.518064
    155 O20        -9.5940    0.9580    1.3750 o         1 MOL     -0.495745
    156 C51       -12.2580    0.4040   -0.4770 c3        1 MOL     -0.016129
    157 C52       -12.7170    0.1000    0.9910 c3        1 MOL     -0.158361
    158 C53       -14.1780   -0.0610    0.9800 c         1 MOL      0.729780
    159 O21       -14.6060   -1.1100    0.4370 o         1 MOL     -0.665576
    160 O22       -14.8940    0.7760    1.5090 o         1 MOL     -0.665576
    161 H72       -10.9860    1.2440   -2.5460 hn        1 MOL      0.288028
    162 H73       -10.3360   -0.5240   -0.3420 h1        1 MOL      0.114282
    163 H74       -12.6210   -0.4160   -1.0990 hc        1 MOL      0.030419
    164 H75       -12.7000    1.3510   -0.7920 hc        1 MOL      0.030419
    165 H76       -12.4540    1.0030    1.5410 hc        1 MOL      0.025602
    166 H77       -12.1000   -0.6990    1.3990 hc        1 MOL      0.025602
    167 N15        -9.9610    2.7230    0.0730 n         1 MOL     -0.327241
    168 C54        -9.0700    3.6850    0.7630 c3        1 MOL     -0.193828
    169 H78        -9.4470    3.8720    1.7680 h1        1 MOL      0.102156
    170 H79        -8.0640    3.2690    0.8240 h1        1 MOL      0.102156
    171 H80        -9.0430    4.6210    0.2060 h1        1 MOL      0.102156
    172 H81       -10.3750    3.0240   -0.7960 hn        1 MOL      0.267080
    173 Ca1         2.8900    0.2310   -1.0300 Ca        1 MOL      1.731828
    174 O23         0.8840    1.5650   -1.9660 oh        1 MOL     -0.889821
    175 H82         0.6280    0.9180   -2.6300 ho        1 MOL      0.427224
    176 H83         0.1270    2.1540   -1.9070 ho        1 MOL      0.427224
    177 O24         0.9260   -1.8160   -1.6020 oh        1 MOL     -0.889821
    178 H84         1.6530   -1.9450   -2.2130 ho        1 MOL      0.427224
    179 H85         0.1460   -2.0340   -2.1070 ho        1 MOL      0.427224
    180 O25         3.7240    1.4700   -3.3570 oh        1 MOL     -0.889821
    181 H86         3.0670    1.3350   -4.0380 ho        1 MOL      0.427224
    182 H87         4.3180    2.1190   -3.7140 ho        1 MOL      0.427224
@<TRIPOS>BOND
     1    1    2 1   
     2    1    4 1   
     3    1    5 1   
     4    1    6 1   
     5    2    3 2   
     6    2    7 1   
     7    7    8 1   
     8    7   15 1   
     9    8    9 1   
    10    8   11 1   
    11    8   16 1   
    12    9   10 2   
    13    9   19 1   
    14   11   12 1   
    15   11   17 1   
    16   11   18 1   
    17   12   13 1   
    18   12   14 1   
    19   19   20 1   
    20   19   28 1   
    21   20   21 1   
    22   20   23 1   
    23   20   29 1   
    24   21   22 2   
    25   21   41 1   
    26   23   24 1   
    27   23   30 1   
    28   23   31 1   
    29   24   25 1   
    30   24   32 1   
    31   24   33 1   
    32   25   26 1   
    33   25   34 1   
    34   25   35 1   
    35   26   27 1   
    36   26   36 1   
    37   26   37 1   
    38   27   38 1   
    39   27   39 1   
    40   27   40 1   
    41   41   42 1   
    42   41   49 1   
    43   42   43 1   
    44   42   45 1   
    45   42   50 1   
    46   43   44 2   
    47   43   53 1   
    48   45   46 1   
    49   45   51 1   
    50   45   52 1   
    51   46   47 1   
    52   46   48 1   
    53   53   54 1   
    54   53   57 1   
    55   54   55 1   
    56   54   58 1   
    57   54   59 1   
    58   55   56 2   
    59   55   60 1   
    60   60   61 1   
    61   60   68 1   
    62   61   62 1   
    63   61   64 1   
    64   61   69 1   
    65   62   63 2   
    66   62   74 1   
    67   64   65 1   
    68   64   70 1   
    69   64   71 1   
    70   65   66 1   
    71   65   67 2   
    72   66   72 1   
    73   66   73 1   
    74   74   75 1   
    75   74   78 1   
    76   75   76 1   
    77   75   79 1   
    78   75   80 1   
    79   76   77 2   
    80   76   81 1   
    81   81   82 1   
    82   81   93 1   
    83   82   83 1   
    84   82   85 1   
    85   82   94 1   
    86   83   84 2   
    87   83  102 1   
    88   85   86 1   
    89   85   95 1   
    90   85   96 1   
    91   86   87 ar  
    92   86   88 ar  
    93   87   89 ar  
    94   87   97 1   
    95   88   90 ar  
    96   88   98 1   
    97   89   91 ar  
    98   89   99 1   
    99   90   91 ar  
   100   90  100 1   
   101   91   92 1   
   102   92  101 1   
   103  102  103 1   
   104  102  110 1   
   105  103  104 1   
   106  103  106 1   
   107  103  111 1   
   108  104  105 2   
   109  104  121 1   
   110  106  107 1   
   111  106  108 1   
   112  106  112 1   
   113  107  109 1   
   114  107  113 1   
   115  107  114 1   
   116  108  115 1   
   117  108  116 1   
   118  108  117 1   
   119  109  118 1   
   120  109  119 1   
   121  109  120 1   
   122  121  122 1   
   123  121  127 1   
   124  122  123 1   
   125  122  125 1   
   126  122  128 1   
   127  123  124 2   
   128  123  132 1   
   129  125  126 1   
   130  125  129 1   
   131  125  130 1   
   132  126  131 1   
   133  132  133 1   
   134  132  137 1   
   135  133  134 1   
   136  133  136 1   
   137  133  138 1   
   138  134  135 2   
   139  134  142 1   
   140  136  139 1   
   141  136  140 1   
   142  136  141 1   
   143  142  143 1   
   144  142  147 1   
   145  143  144 1   
   146  143  146 1   
   147  143  148 1   
   148  144  145 2   
   149  144  152 1   
   150  146  149 1   
   151  146  150 1   
   152  146  151 1   
   153  152  153 1   
   154  152  161 1   
   155  153  154 1   
   156  153  156 1   
   157  153  162 1   
   158  154  155 2   
   159  154  167 1   
   160  156  157 1   
   161  156  163 1   
   162  156  164 1   
   163  157  158 1   
   164  157  165 1   
   165  157  166 1   
   166  158  159 1   
   167  158  160 1   
   168  167  168 1   
   169  167  172 1   
   170  168  169 1   
   171  168  170 1   
   172  168  171 1   
   173  174  175 1   
   174  174  176 1   
   175  177  178 1   
   176  177  179 1   
   177  180  181 1   
   178  180  182 1   
@<TRIPOS>SUBSTRUCTURE
     1 MOL         1 TEMP              0 ****  ****    0 ROOT
