@<TRIPOS>MOLECULE
MOL
  184   179     1     0     0
SMALL
resp


@<TRIPOS>ATOM
      1 C1          8.2460   -4.9610    4.4000 c3        1 MOL     -0.332613
      2 C2          7.7270   -3.6560    3.6400 c         1 MOL      0.661357
      3 O1          6.8740   -2.9350    4.1680 o         1 MOL     -0.588688
      4 H1          7.7600   -5.0320    5.3730 hc        1 MOL      0.084444
      5 H2          8.0070   -5.8460    3.8090 hc        1 MOL      0.084444
      6 H3          9.3260   -4.8970    4.5380 hc        1 MOL      0.084444
      7 N1          8.0480   -3.4590    2.4130 n         1 MOL     -0.541444
      8 C3          9.0870   -4.1270    1.5900 c3        1 MOL      0.275005
      9 C4          8.4740   -4.5740    0.2270 c         1 MOL      0.292903
     10 O2          7.3800   -5.0380    0.1320 o         1 MOL     -0.425694
     11 C5         10.2760   -3.2150    1.3440 c3        1 MOL     -0.612976
     12 C6          9.8970   -1.7440    0.9500 c         1 MOL      0.833083
     13 O3         10.0950   -0.7830    1.7440 o         1 MOL     -0.721852
     14 O4          9.4250   -1.5990   -0.1740 o         1 MOL     -0.721852
     15 H4          7.5110   -2.7510    1.9290 hn        1 MOL      0.349875
     16 H5          9.4850   -5.0380    2.0370 h1        1 MOL      0.074763
     17 H6         11.0210   -3.5080    0.6030 hc        1 MOL      0.126166
     18 H7         10.8620   -3.1560    2.2680 hc        1 MOL      0.126166
     19 N2          9.1750   -4.3880   -0.9170 n         1 MOL     -0.399760
     20 C7          8.6090   -4.4200   -2.2480 c3        1 MOL      0.279811
     21 C8          7.3000   -3.6100   -2.5720 c         1 MOL      0.502669
     22 O5          6.5300   -3.9600   -3.4580 o         1 MOL     -0.523507
     23 C9          8.5330   -5.8920   -2.7870 c3        1 MOL     -0.172736
     24 H8         10.1460   -4.1010   -0.8590 hn        1 MOL      0.249061
     25 H9          9.2820   -3.9460   -2.9610 h1        1 MOL      0.004115
     26 H10         8.1600   -5.9510   -3.8040 hc        1 MOL      0.038771
     27 H11         9.5230   -6.3560   -2.7250 hc        1 MOL      0.038771
     28 H12         7.7980   -6.4530   -2.2140 hc        1 MOL      0.038771
     29 N3          7.0640   -2.4790   -1.8650 n         1 MOL     -0.672719
     30 C10         5.8580   -1.6250   -1.9160 c3        1 MOL      0.630490
     31 C11         6.1460   -0.1200   -1.9920 c         1 MOL      0.283112
     32 O6          6.9510    0.5140   -1.3350 o         1 MOL     -0.493674
     33 C12         4.8610   -1.7970   -0.7930 c3        1 MOL     -0.229290
     34 C13         5.4910   -1.7320    0.6440 c         1 MOL      0.705630
     35 O7          4.7420   -2.0110    1.6200 o         1 MOL     -0.643047
     36 O8          6.6620   -1.4010    0.8960 o         1 MOL     -0.643047
     37 H13         7.7490   -2.1850   -1.1860 hn        1 MOL      0.293778
     38 H14         5.3870   -1.8310   -2.8800 h1        1 MOL     -0.094926
     39 H15         4.2750   -2.7080   -0.9130 hc        1 MOL      0.047524
     40 H16         4.2380   -0.9040   -0.9030 hc        1 MOL      0.047524
     41 N4          5.2520    0.4790   -2.8270 n         1 MOL     -0.411974
     42 C14         5.0520    1.9240   -3.0820 c3        1 MOL     -0.302360
     43 C15         4.2750    2.6700   -2.0810 c         1 MOL      0.617821
     44 O9          3.5800    2.0960   -1.2580 o         1 MOL     -0.413780
     45 H17         4.5300   -0.1410   -3.1390 hn        1 MOL      0.320164
     46 H18         4.4990    1.9900   -4.0160 h1        1 MOL      0.154549
     47 H19         6.0110    2.4240   -3.2630 h1        1 MOL      0.154549
     48 N5          4.3670    3.9360   -2.1560 n         1 MOL     -0.458683
     49 C16         3.9500    4.8200   -1.1010 c3        1 MOL     -0.027237
     50 C17         2.3890    4.9580   -1.1730 c         1 MOL      0.470938
     51 O10         1.8150    4.9960   -2.2780 o         1 MOL     -0.482212
     52 C18         4.6290    6.1980   -1.2120 c3        1 MOL     -0.392452
     53 C19         4.1210    7.2330   -0.2570 c         1 MOL      0.636841
     54 N6          4.7650    7.3640    0.8700 n         1 MOL     -0.639325
     55 O11         3.1910    7.9780   -0.5130 o         1 MOL     -0.514556
     56 H20         4.8480    4.3420   -2.9480 hn        1 MOL      0.297141
     57 H21         4.0860    4.3150   -0.1450 h1        1 MOL      0.094046
     58 H22         4.5960    6.5660   -2.2410 hc        1 MOL      0.113901
     59 H23         5.6890    6.0040   -1.0290 hc        1 MOL      0.113901
     60 H24         5.5070    6.7400    1.1190 hn        1 MOL      0.298133
     61 H25         4.4790    8.0410    1.5700 hn        1 MOL      0.298133
     62 N7          1.6650    5.0460   -0.0410 n         1 MOL     -0.490357
     63 C20         0.2070    5.1530   -0.0240 c3        1 MOL      0.112482
     64 C21        -0.5140    3.9350   -0.5650 c         1 MOL      0.763441
     65 O12         0.0840    2.8510   -0.6000 o         1 MOL     -0.615742
     66 H26         2.2150    5.0360    0.8050 hn        1 MOL      0.305460
     67 H27        -0.1330    6.0570   -0.5130 h1        1 MOL      0.034481
     68 H28        -0.2110    5.2130    0.9790 h1        1 MOL      0.034481
     69 N8         -1.7380    3.9940   -0.9080 n         1 MOL     -0.470606
     70 C22        -2.7150    5.1460   -0.8800 c3        1 MOL     -0.429819
     71 C23        -3.9000    4.9380    0.0600 c         1 MOL      0.494174
     72 O13        -4.7490    5.8060    0.2070 o         1 MOL     -0.507870
     73 C24        -3.3710    5.3650   -2.2300 c3        1 MOL      0.489173
     74 C25        -2.3610    5.7210   -3.3420 c3        1 MOL     -0.530374
     75 O14        -3.9100    4.2440   -2.9100 oh        1 MOL     -0.619142
     76 H29        -2.1700    3.1020   -1.0500 hn        1 MOL      0.288251
     77 H30        -2.2970    6.0720   -0.4690 h1        1 MOL      0.161547
     78 H31        -4.1780    6.1080   -2.2160 h1        1 MOL      0.055774
     79 H32        -3.1890    3.7910   -3.3630 ho        1 MOL      0.405096
     80 H33        -1.8520    6.6270   -3.0080 hc        1 MOL      0.136104
     81 H34        -1.6030    4.9370   -3.3780 hc        1 MOL      0.136104
     82 H35        -2.9070    5.9110   -4.2570 hc        1 MOL      0.136104
     83 N9         -3.8780    3.7820    0.7680 n         1 MOL     -0.066903
     84 C26        -4.5520    3.5000    1.9770 c3        1 MOL      0.150492
     85 C27        -5.9900    4.0280    2.0120 c         1 MOL      0.469968
     86 O15        -6.2600    5.0300    2.6680 o         1 MOL     -0.536122
     87 C28        -3.6590    3.9660    3.1920 c3        1 MOL     -0.027787
     88 C29        -2.1590    3.6870    3.0980 c3        1 MOL      0.043071
     89 C30        -4.2420    3.4750    4.5480 c3        1 MOL     -0.223693
     90 C31        -1.7340    2.2750    2.9140 c3        1 MOL     -0.169778
     91 H36        -3.3010    3.0150    0.4520 hn        1 MOL      0.187618
     92 H37        -4.6120    2.4150    1.9460 h1        1 MOL     -0.009636
     93 H38        -3.8300    5.0400    3.2140 hc        1 MOL      0.008563
     94 H39        -1.6520    4.0050    4.0140 hc        1 MOL     -0.023798
     95 H40        -1.7160    4.3210    2.3170 hc        1 MOL     -0.023798
     96 H41        -3.5640    3.9300    5.2690 hc        1 MOL      0.060857
     97 H42        -5.2840    3.7880    4.6390 hc        1 MOL      0.060857
     98 H43        -4.2820    2.3990    4.7320 hc        1 MOL      0.060857
     99 H44        -2.4650    1.7000    2.3420 hc        1 MOL      0.037801
    100 H45        -0.7860    2.2130    2.3780 hc        1 MOL      0.037801
    101 H46        -1.7050    1.9290    3.9400 hc        1 MOL      0.037801
    102 N10        -6.9010    3.4990    1.1360 n         1 MOL     -0.360101
    103 C32        -6.7490    2.4010    0.1600 c3        1 MOL      0.197069
    104 C33        -7.0630    1.0700    0.8020 c         1 MOL      0.460409
    105 O16        -6.5360    0.7930    1.8870 o         1 MOL     -0.580987
    106 C34        -7.6800    2.6790   -0.9480 c3        1 MOL     -0.394242
    107 C35        -9.2050    2.8720   -0.5740 c         1 MOL      0.694237
    108 O17        -9.5590    3.4990    0.4670 o         1 MOL     -0.674379
    109 O18       -10.0770    2.3070   -1.2280 o         1 MOL     -0.674379
    110 H47        -7.8290    3.8320    1.3310 hn        1 MOL      0.235968
    111 H48        -5.7480    2.4160   -0.2660 h1        1 MOL     -0.031759
    112 H49        -7.5120    1.9630   -1.7510 hc        1 MOL      0.095272
    113 H50        -7.4480    3.6300   -1.4170 hc        1 MOL      0.095272
    114 N11        -7.9370    0.2330    0.2490 n         1 MOL     -0.301201
    115 C36        -8.3400   -1.1380    0.5990 c3        1 MOL      0.217191
    116 C37        -8.9200   -1.8110   -0.6120 c         1 MOL      0.270260
    117 O19        -9.7840   -1.2210   -1.1880 o         1 MOL     -0.461478
    118 C38        -9.4260   -1.1790    1.7680 c3        1 MOL     -0.230096
    119 C39        -9.6210   -2.5780    2.3420 ca        1 MOL      0.065042
    120 C40       -10.7730   -3.3410    2.0790 ca        1 MOL     -0.132905
    121 C41        -8.5600   -3.0800    3.1370 ca        1 MOL     -0.132905
    122 C42       -10.9910   -4.5600    2.7510 ca        1 MOL     -0.143551
    123 C43        -8.7180   -4.3750    3.7040 ca        1 MOL     -0.143551
    124 C44        -9.9100   -5.1320    3.5060 ca        1 MOL     -0.117131
    125 H51        -8.2850    0.5590   -0.6450 hn        1 MOL      0.243512
    126 H52        -7.4220   -1.6360    0.9290 h1        1 MOL      0.033012
    127 H53       -10.3420   -0.7940    1.3190 hc        1 MOL      0.109325
    128 H54        -9.2560   -0.5080    2.6100 hc        1 MOL      0.109325
    129 H55       -11.5890   -2.8520    1.5610 ha        1 MOL      0.124994
    130 H56        -7.6750   -2.5000    3.3440 ha        1 MOL      0.124994
    131 H57       -11.9000   -5.1260    2.6510 ha        1 MOL      0.103125
    132 H58        -7.9440   -4.7920    4.3400 ha        1 MOL      0.103125
    133 H59       -10.1410   -6.0250    4.0600 ha        1 MOL      0.092605
    134 N12        -8.5760   -3.0260   -1.0820 n         1 MOL      0.037727
    135 C45        -7.5610   -3.9420   -0.5930 c3        1 MOL      0.076277
    136 C46        -6.1080   -3.4510   -0.6760 c         1 MOL      0.509071
    137 O20        -5.8810   -2.2200   -0.6080 o         1 MOL     -0.528319
    138 C47        -7.7390   -5.1800   -1.5570 c3        1 MOL     -0.261505
    139 C48        -9.1410   -5.0940   -2.0480 c3        1 MOL      0.181965
    140 C49        -9.2090   -3.5700   -2.2850 c3        1 MOL     -0.219956
    141 H60        -7.8110   -4.1940    0.4360 h1        1 MOL      0.011774
    142 H61        -7.0740   -5.0350   -2.4070 hc        1 MOL      0.060790
    143 H62        -7.5140   -6.0550   -0.9540 hc        1 MOL      0.060790
    144 H63        -9.4340   -5.6340   -2.9510 hc        1 MOL     -0.025693
    145 H64        -9.7860   -5.3690   -1.2000 hc        1 MOL     -0.025693
    146 H65        -8.5540   -3.3280   -3.1170 h1        1 MOL      0.110772
    147 H66       -10.2590   -3.2960   -2.3330 h1        1 MOL      0.110772
    148 N13        -5.1260   -4.3580   -0.7400 n         1 MOL     -0.480949
    149 C50        -3.6860   -3.8860   -0.7110 c3        1 MOL      0.345462
    150 C51        -2.8590   -5.0770   -0.2570 c         1 MOL      0.341970
    151 O21        -2.1080   -5.6840   -1.0130 o         1 MOL     -0.498168
    152 C52        -3.1720   -3.2930   -2.0670 c3        1 MOL     -0.153408
    153 C53        -3.6310   -4.1720   -3.2500 c3        1 MOL      0.030825
    154 C54        -3.7400   -3.3090   -4.5870 c         1 MOL      0.643159
    155 O22        -4.8350   -3.1240   -5.1490 o         1 MOL     -0.652473
    156 O23        -2.7150   -2.8640   -5.1380 o         1 MOL     -0.652473
    157 H67        -5.2950   -5.3180   -1.0020 hn        1 MOL      0.277399
    158 H68        -3.5610   -3.1350    0.0760 h1        1 MOL      0.012942
    159 H69        -2.0770   -3.2080   -2.0520 hc        1 MOL      0.047661
    160 H70        -3.5410   -2.2780   -2.1360 hc        1 MOL      0.047661
    161 H71        -4.6190   -4.5820   -3.0730 hc        1 MOL     -0.028708
    162 H72        -2.9570   -5.0010   -3.4850 hc        1 MOL     -0.028708
    163 N14        -3.0270   -5.5620    0.9920 n         1 MOL     -0.374364
    164 C55        -3.9440   -5.1680    2.0540 c3        1 MOL     -0.019729
    165 H73        -3.3760   -4.7660    2.8930 h1        1 MOL      0.042004
    166 H74        -4.6280   -4.4070    1.6800 h1        1 MOL      0.042004
    167 H75        -4.5120   -6.0380    2.3850 h1        1 MOL      0.042004
    168 H76        -2.5110   -6.3980    1.2130 hn        1 MOL      0.273258
    169 Ca1         8.2590    0.7420    0.9460 Ca        1 MOL      1.721860
    170 O24        10.1150    1.4980   -0.7060 oh        1 MOL     -0.847660
    171 H77        10.2960    0.8590   -1.4030 ho        1 MOL      0.393890
    172 H78        10.5150    2.3130   -1.0050 ho        1 MOL      0.393890
    173 O25         5.7000    1.1400    1.5150 oh        1 MOL     -0.847660
    174 H79         4.7740    1.3820    1.6180 ho        1 MOL      0.393890
    175 H80         5.7790    0.3150    2.0010 ho        1 MOL      0.393890
    176 O26         7.7270   -0.1870    3.4420 oh        1 MOL     -0.847660
    177 H81         7.3050   -0.9830    3.7780 ho        1 MOL      0.393890
    178 H82         8.4780   -0.0620    4.0260 ho        1 MOL      0.393890
    179 O27         9.8490    2.0220    2.4790 oh        1 MOL     -0.847660
    180 H83        10.0560    2.9440    2.6390 ho        1 MOL      0.393890
    181 H84        10.0330    1.5900    3.3120 ho        1 MOL      0.393890
    182 O28         7.7380    3.3680    0.6500 oh        1 MOL     -0.847660
    183 H85         7.6150    3.7180   -0.2370 ho        1 MOL      0.393890
    184 H86         7.7360    4.1360    1.2150 ho        1 MOL      0.393890
@<TRIPOS>BOND
     1    1    2 1   
     2    1    4 1   
     3    1    5 1   
     4    1    6 1   
     5    2    3 2   
     6    2    7 1   
     7    7    8 1   
     8    7   15 1   
     9    8    9 1   
    10    8   11 1   
    11    8   16 1   
    12    9   10 2   
    13    9   19 1   
    14   11   12 1   
    15   11   17 1   
    16   11   18 1   
    17   12   13 1   
    18   12   14 1   
    19   19   20 1   
    20   19   24 1   
    21   20   21 1   
    22   20   23 1   
    23   20   25 1   
    24   21   22 2   
    25   21   29 1   
    26   23   26 1   
    27   23   27 1   
    28   23   28 1   
    29   29   30 1   
    30   29   37 1   
    31   30   31 1   
    32   30   33 1   
    33   30   38 1   
    34   31   32 2   
    35   31   41 1   
    36   33   34 1   
    37   33   39 1   
    38   33   40 1   
    39   34   35 1   
    40   34   36 1   
    41   41   42 1   
    42   41   45 1   
    43   42   43 1   
    44   42   46 1   
    45   42   47 1   
    46   43   44 2   
    47   43   48 1   
    48   48   49 1   
    49   48   56 1   
    50   49   50 1   
    51   49   52 1   
    52   49   57 1   
    53   50   51 2   
    54   50   62 1   
    55   52   53 1   
    56   52   58 1   
    57   52   59 1   
    58   53   54 1   
    59   53   55 2   
    60   54   60 1   
    61   54   61 1   
    62   62   63 1   
    63   62   66 1   
    64   63   64 1   
    65   63   67 1   
    66   63   68 1   
    67   64   65 2   
    68   64   69 1   
    69   69   70 1   
    70   69   76 1   
    71   70   71 1   
    72   70   73 1   
    73   70   77 1   
    74   71   72 2   
    75   71   83 1   
    76   73   74 1   
    77   73   75 1   
    78   73   78 1   
    79   74   80 1   
    80   74   81 1   
    81   74   82 1   
    82   75   79 1   
    83   83   84 1   
    84   83   91 1   
    85   84   85 1   
    86   84   87 1   
    87   84   92 1   
    88   85   86 2   
    89   85  102 1   
    90   87   88 1   
    91   87   89 1   
    92   87   93 1   
    93   88   90 1   
    94   88   94 1   
    95   88   95 1   
    96   89   96 1   
    97   89   97 1   
    98   89   98 1   
    99   90   99 1   
   100   90  100 1   
   101   90  101 1   
   102  102  103 1   
   103  102  110 1   
   104  103  104 1   
   105  103  106 1   
   106  103  111 1   
   107  104  105 2   
   108  104  114 1   
   109  106  107 1   
   110  106  112 1   
   111  106  113 1   
   112  107  108 1   
   113  107  109 1   
   114  114  115 1   
   115  114  125 1   
   116  115  116 1   
   117  115  118 1   
   118  115  126 1   
   119  116  117 2   
   120  116  134 1   
   121  118  119 1   
   122  118  127 1   
   123  118  128 1   
   124  119  120 ar  
   125  119  121 ar  
   126  120  122 ar  
   127  120  129 1   
   128  121  123 ar  
   129  121  130 1   
   130  122  124 ar  
   131  122  131 1   
   132  123  124 ar  
   133  123  132 1   
   134  124  133 1   
   135  134  135 1   
   136  134  140 1   
   137  135  136 1   
   138  135  138 1   
   139  135  141 1   
   140  136  137 2   
   141  136  148 1   
   142  138  139 1   
   143  138  142 1   
   144  138  143 1   
   145  139  140 1   
   146  139  144 1   
   147  139  145 1   
   148  140  146 1   
   149  140  147 1   
   150  148  149 1   
   151  148  157 1   
   152  149  150 1   
   153  149  152 1   
   154  149  158 1   
   155  150  151 2   
   156  150  163 1   
   157  152  153 1   
   158  152  159 1   
   159  152  160 1   
   160  153  154 1   
   161  153  161 1   
   162  153  162 1   
   163  154  155 1   
   164  154  156 1   
   165  163  164 1   
   166  163  168 1   
   167  164  165 1   
   168  164  166 1   
   169  164  167 1   
   170  170  171 1   
   171  170  172 1   
   172  173  174 1   
   173  173  175 1   
   174  176  177 1   
   175  176  178 1   
   176  179  180 1   
   177  179  181 1   
   178  182  183 1   
   179  182  184 1   
@<TRIPOS>SUBSTRUCTURE
     1 MOL         1 TEMP              0 ****  ****    0 ROOT
