@<TRIPOS>MOLECULE
MOL
  178   175     1     0     0
SMALL
resp


@<TRIPOS>ATOM
      1 C1          4.4880   -2.1580    2.8210 c3        1 MOL     -0.391171
      2 C2          5.8360   -1.3790    2.4780 c         1 MOL      0.678766
      3 O1          5.8260   -0.2500    1.9910 o         1 MOL     -0.631215
      4 H1          4.4650   -2.3920    3.8850 hc        1 MOL      0.109012
      5 H2          3.6320   -1.5330    2.5680 hc        1 MOL      0.109012
      6 H3          4.4460   -3.0820    2.2450 hc        1 MOL      0.109012
      7 N1          6.9850   -1.9870    2.5890 n         1 MOL     -0.532913
      8 C3          8.2510   -1.3820    2.3460 c3        1 MOL      0.158579
      9 C4          8.4490   -0.9820    0.8420 c         1 MOL      0.523480
     10 O2          8.4090   -1.8220   -0.0410 o         1 MOL     -0.515234
     11 C5          9.3270   -2.3590    2.7690 c3        1 MOL     -0.156378
     12 C6         10.6240   -1.7470    3.3290 c         1 MOL      0.726086
     13 O3         11.5010   -2.4890    3.8580 o         1 MOL     -0.739183
     14 O4         10.6600   -0.4980    3.4010 o         1 MOL     -0.739183
     15 H4          6.9860   -2.8890    3.0420 hn        1 MOL      0.285255
     16 H5          8.3510   -0.5170    3.0100 h1        1 MOL      0.051202
     17 H6          9.7190   -2.9430    1.9220 hc        1 MOL      0.007991
     18 H7          8.9900   -3.0930    3.4940 hc        1 MOL      0.007991
     19 N2          8.6870    0.3250    0.5450 n         1 MOL     -0.502842
     20 C7          8.7580    0.7320   -0.8070 c3        1 MOL      0.274582
     21 C8          7.4690    0.5470   -1.7160 c         1 MOL      0.580486
     22 O5          7.5110    0.6420   -2.9230 o         1 MOL     -0.589902
     23 C9          9.3910    2.0820   -0.8780 c3        1 MOL     -0.326473
     24 H8          8.8500    0.9280    1.3430 hn        1 MOL      0.278528
     25 H9          9.4620    0.1010   -1.3240 h1        1 MOL      0.035455
     26 H10         8.7950    2.8130   -0.3240 hc        1 MOL      0.077847
     27 H11        10.3620    2.0960   -0.3810 hc        1 MOL      0.077847
     28 H12         9.7210    2.4290   -1.8570 hc        1 MOL      0.077847
     29 N3          6.3750    0.2390   -0.9790 n         1 MOL     -0.947550
     30 C10         5.0880   -0.3990   -1.4610 c3        1 MOL      0.649593
     31 C11         4.4620    0.3080   -2.6580 c         1 MOL      0.155736
     32 O6          3.5030   -0.2830   -3.1210 o         1 MOL     -0.410398
     33 C12         5.2310   -1.8410   -1.5950 c3        1 MOL      0.064740
     34 C13         3.8730   -2.5680   -1.4650 c         1 MOL      0.691923
     35 O7          3.7360   -3.6650   -2.1010 o         1 MOL     -0.809850
     36 O8          2.8470   -2.1880   -0.8310 o         1 MOL     -0.809850
     37 H13         6.6170    0.1820   -0.0030 hn        1 MOL      0.422912
     38 H14         4.4480   -0.2850   -0.5840 h1        1 MOL     -0.012732
     39 H15         5.7790   -2.2400   -0.7390 hc        1 MOL     -0.033927
     40 H16         5.6640   -2.1350   -2.5520 hc        1 MOL     -0.033927
     41 N4          4.9830    1.4290   -3.2230 n         1 MOL     -0.042703
     42 C14         4.4670    1.9860   -4.4900 c3        1 MOL     -0.323097
     43 C15         3.2230    2.7960   -4.3060 c         1 MOL      0.542642
     44 O9          2.5830    2.9850   -5.3160 o         1 MOL     -0.534023
     45 H17         5.8300    1.8510   -2.8700 hn        1 MOL      0.207721
     46 H18         4.3050    1.1780   -5.2060 h1        1 MOL      0.145770
     47 H19         5.2850    2.6240   -4.8080 h1        1 MOL      0.145770
     48 N5          2.7620    3.1890   -3.1090 n         1 MOL     -0.422593
     49 C16         1.4770    3.8740   -2.9550 c3        1 MOL      0.199364
     50 C17         1.5220    4.9380   -1.8420 c         1 MOL      0.465246
     51 O10         1.9990    4.6980   -0.7470 o         1 MOL     -0.472207
     52 C18         0.3480    2.8420   -2.8670 c3        1 MOL     -0.364847
     53 C19        -0.9890    3.5260   -2.5580 c         1 MOL      0.565904
     54 N6         -1.3260    3.4280   -1.3180 n         1 MOL     -0.663098
     55 O11        -1.6680    4.0980   -3.4180 o         1 MOL     -0.559713
     56 H20         3.2980    2.9490   -2.2930 hn        1 MOL      0.195743
     57 H21         1.2750    4.4340   -3.8720 h1        1 MOL      0.005866
     58 H22         0.7180    2.1120   -2.1570 hc        1 MOL      0.171949
     59 H23         0.2040    2.4760   -3.8760 hc        1 MOL      0.171949
     60 H24        -0.7790    2.9640   -0.6080 hn        1 MOL      0.324789
     61 H25        -2.3110    3.5680   -1.1060 hn        1 MOL      0.324789
     62 N7          0.9130    6.0910   -2.0580 n         1 MOL     -0.442225
     63 C20         0.7210    7.1180   -1.0620 c3        1 MOL      0.030337
     64 C21        -0.7230    7.0870   -0.5950 c         1 MOL      0.482576
     65 O12        -1.6760    7.2740   -1.3100 o         1 MOL     -0.512385
     66 H26         0.3280    6.1300   -2.8740 hn        1 MOL      0.316600
     67 H27         0.8030    8.1420   -1.4420 h1        1 MOL      0.041760
     68 H28         1.2900    6.8830   -0.1690 h1        1 MOL      0.041760
     69 N8         -0.9640    6.8130    0.6830 n         1 MOL     -0.297002
     70 C22        -2.3150    6.7050    1.2870 c3        1 MOL     -0.152131
     71 C23        -2.5660    5.4100    1.8760 c         1 MOL      0.481460
     72 O13        -3.7290    5.1840    2.2100 o         1 MOL     -0.572614
     73 C24        -2.5780    7.9140    2.1410 c3        1 MOL      0.412616
     74 C25        -2.0360    7.6780    3.5600 c3        1 MOL     -0.433051
     75 O14        -1.9260    9.0690    1.5650 oh        1 MOL     -0.589650
     76 H29        -0.1600    6.9890    1.2700 hn        1 MOL      0.247263
     77 H30        -3.0790    6.8450    0.5220 h1        1 MOL      0.146661
     78 H31        -3.6600    8.0740    2.0920 h1        1 MOL      0.050864
     79 H32        -1.0020    8.8310    1.4490 ho        1 MOL      0.334828
     80 H33        -2.2850    8.5810    4.0980 hc        1 MOL      0.104592
     81 H34        -2.4540    6.8780    4.1730 hc        1 MOL      0.104592
     82 H35        -0.9530    7.5920    3.5250 hc        1 MOL      0.104592
     83 N9         -1.6020    4.5200    2.0300 n         1 MOL     -0.242652
     84 C26        -1.8590    3.2360    2.5130 c3        1 MOL     -0.056400
     85 C27        -1.2930    2.1470    1.5410 c         1 MOL      0.583181
     86 O15        -0.1940    2.2730    1.0730 o         1 MOL     -0.523532
     87 C28        -1.1830    3.1140    3.9400 c3        1 MOL      0.217970
     88 C29        -1.7410    4.1430    4.9540 c3        1 MOL     -0.030142
     89 C30        -1.3720    1.6660    4.5330 c3        1 MOL     -0.105359
     90 C31        -3.2140    3.9940    5.3280 c3        1 MOL     -0.135079
     91 H36        -0.6910    4.7320    1.6550 hn        1 MOL      0.165089
     92 H37        -2.9060    2.9440    2.4490 h1        1 MOL      0.067477
     93 H38        -0.0980    3.2460    3.9340 hc        1 MOL      0.005359
     94 H39        -1.4820    5.1230    4.5650 hc        1 MOL     -0.009378
     95 H40        -1.1160    3.9780    5.8320 hc        1 MOL     -0.009378
     96 H41        -2.4040    1.3020    4.5350 hc        1 MOL      0.017794
     97 H42        -0.7580    0.9420    3.9990 hc        1 MOL      0.017794
     98 H43        -1.0520    1.6350    5.5760 hc        1 MOL      0.017794
     99 H44        -3.6010    4.7400    6.0210 hc        1 MOL      0.037699
    100 H45        -3.8120    4.1580    4.4360 hc        1 MOL      0.037699
    101 H46        -3.5020    2.9860    5.6350 hc        1 MOL      0.037699
    102 N10        -2.0220    1.0650    1.3790 n         1 MOL     -0.628454
    103 C32        -1.7570   -0.0560    0.4540 c3        1 MOL      0.571298
    104 C33        -3.0130   -0.6160   -0.1990 c         1 MOL      0.405515
    105 O16        -3.1960   -1.8480   -0.3480 o         1 MOL     -0.502165
    106 C34        -1.0100   -1.1080    1.1990 c3        1 MOL     -0.280533
    107 C35        -0.3070   -2.2010    0.3890 c         1 MOL      0.823375
    108 O17         0.1280   -3.2450    0.9240 o         1 MOL     -0.758832
    109 O18         0.0110   -1.9420   -0.7680 o         1 MOL     -0.758832
    110 H47        -2.9270    1.0880    1.8200 hn        1 MOL      0.273581
    111 H48        -1.1760    0.2460   -0.4140 h1        1 MOL     -0.077543
    112 H49        -1.7550   -1.7000    1.7310 hc        1 MOL      0.050490
    113 H50        -0.3240   -0.5970    1.8760 hc        1 MOL      0.050490
    114 N11        -4.0090    0.2720   -0.4590 n         1 MOL     -0.495657
    115 C36        -5.3400   -0.1440   -0.8460 c3        1 MOL      0.451911
    116 C37        -5.8910   -1.4150   -0.0690 c         1 MOL      0.294340
    117 O19        -5.9250   -1.3100    1.1540 o         1 MOL     -0.527268
    118 C38        -6.2460    1.0420   -0.7040 c3        1 MOL     -0.364128
    119 C39        -7.6260    0.9260   -1.2880 ca        1 MOL      0.224654
    120 C40        -8.0250    1.4860   -2.4970 ca        1 MOL     -0.221885
    121 C41        -8.5680    0.1830   -0.5900 ca        1 MOL     -0.221885
    122 C42        -9.3770    1.4530   -2.9280 ca        1 MOL     -0.081605
    123 C43        -9.8890    0.1820   -0.9010 ca        1 MOL     -0.081605
    124 C44       -10.3250    0.7440   -2.1360 ca        1 MOL     -0.157583
    125 H51        -3.8250    1.2650   -0.4720 hn        1 MOL      0.233784
    126 H52        -5.3090   -0.3750   -1.9090 h1        1 MOL     -0.060197
    127 H53        -5.7890    1.9530   -1.0940 hc        1 MOL      0.106470
    128 H54        -6.4400    1.2530    0.3470 hc        1 MOL      0.106470
    129 H55        -7.3700    2.0110   -3.1800 ha        1 MOL      0.130072
    130 H56        -8.4050   -0.1730    0.4250 ha        1 MOL      0.130072
    131 H57        -9.5860    1.9500   -3.8670 ha        1 MOL      0.107487
    132 H58       -10.5980   -0.3900   -0.3210 ha        1 MOL      0.107487
    133 H59       -11.3360    0.6750   -2.5100 ha        1 MOL      0.106128
    134 N12        -6.1740   -2.5570   -0.7640 n         1 MOL      0.087640
    135 C45        -6.9830   -3.6060   -0.1970 c3        1 MOL     -0.056347
    136 C46        -6.3150   -4.5110    0.7990 c         1 MOL      0.408917
    137 O20        -6.8930   -4.9940    1.7420 o         1 MOL     -0.531149
    138 C47        -7.4230   -4.4400   -1.4360 c3        1 MOL     -0.170708
    139 C48        -6.4360   -4.1470   -2.6220 c3        1 MOL      0.026786
    140 C49        -6.1240   -2.7100   -2.2330 c3        1 MOL     -0.174724
    141 H60        -7.9000   -3.2150    0.2560 h1        1 MOL      0.075492
    142 H61        -7.5190   -5.5120   -1.2440 hc        1 MOL      0.069776
    143 H62        -8.3690   -4.0270   -1.7870 hc        1 MOL      0.069776
    144 H63        -5.5430   -4.7620   -2.5310 hc        1 MOL      0.028804
    145 H64        -6.8740   -4.2800   -3.6140 hc        1 MOL      0.028804
    146 H65        -5.0880   -2.4890   -2.4590 h1        1 MOL      0.070043
    147 H66        -6.8110   -2.0420   -2.7440 h1        1 MOL      0.070043
    148 N13        -4.9580   -4.5590    0.7000 n         1 MOL     -0.170490
    149 C50        -4.1510   -5.3840    1.5440 c3        1 MOL     -0.302189
    150 C51        -3.9510   -4.8110    3.0150 c         1 MOL      0.542710
    151 O21        -3.5650   -5.5480    3.8410 o         1 MOL     -0.531759
    152 C52        -2.7200   -5.4270    1.0240 c3        1 MOL      0.182273
    153 C53        -2.5990   -6.2290   -0.2630 c3        1 MOL     -0.279426
    154 C54        -1.2730   -5.7560   -0.8530 c         1 MOL      0.661660
    155 O22        -1.1890   -5.0630   -1.8560 o         1 MOL     -0.712442
    156 O23        -0.1680   -6.0060   -0.2650 o         1 MOL     -0.712442
    157 H67        -4.4330   -4.0530    0.0140 hn        1 MOL      0.271880
    158 H68        -4.5320   -6.4000    1.6440 h1        1 MOL      0.148950
    159 H69        -1.9870   -5.8460    1.7080 hc        1 MOL      0.009172
    160 H70        -2.4270   -4.3910    0.9100 hc        1 MOL      0.009172
    161 H71        -3.3070   -5.8460   -0.9980 hc        1 MOL      0.047352
    162 H72        -2.5680   -7.3140   -0.2320 hc        1 MOL      0.047352
    163 N14        -4.3360   -3.5320    3.3020 n         1 MOL     -0.223752
    164 C55        -4.2980   -3.0290    4.6280 c3        1 MOL     -0.281782
    165 H73        -4.2670   -3.8620    5.3310 h1        1 MOL      0.099897
    166 H74        -3.4090   -2.4120    4.7580 h1        1 MOL      0.099897
    167 H75        -5.1880   -2.4290    4.8160 h1        1 MOL      0.099897
    168 H76        -4.5920   -2.8600    2.5860 hn        1 MOL      0.248911
    169 Ca1         1.3960   -4.1410   -1.2180 Ca        1 MOL      1.722837
    170 O24         0.7060   -3.5090   -3.7460 oh        1 MOL     -0.765996
    171 H77        -0.2290   -3.5060   -3.9580 ho        1 MOL      0.385042
    172 H78         0.9830   -2.6090   -3.8810 ho        1 MOL      0.385042
    173 O25         2.7060   -5.6160    0.5140 oh        1 MOL     -0.765996
    174 H79         3.6660   -5.5710    0.5690 ho        1 MOL      0.385042
    175 H80         2.4240   -5.7390    1.4170 ho        1 MOL      0.385042
    176 O26         2.0350   -6.4470   -2.5190 oh        1 MOL     -0.765996
    177 H81         2.2620   -6.4450   -3.4410 ho        1 MOL      0.385042
    178 H82         2.7140   -6.9670   -2.1060 ho        1 MOL      0.385042
@<TRIPOS>BOND
     1    1    2 1   
     2    1    4 1   
     3    1    5 1   
     4    1    6 1   
     5    2    3 2   
     6    2    7 1   
     7    7    8 1   
     8    7   15 1   
     9    8    9 1   
    10    8   11 1   
    11    8   16 1   
    12    9   10 2   
    13    9   19 1   
    14   11   12 1   
    15   11   17 1   
    16   11   18 1   
    17   12   13 1   
    18   12   14 1   
    19   19   20 1   
    20   19   24 1   
    21   20   21 1   
    22   20   23 1   
    23   20   25 1   
    24   21   22 2   
    25   21   29 1   
    26   23   26 1   
    27   23   27 1   
    28   23   28 1   
    29   29   30 1   
    30   29   37 1   
    31   30   31 1   
    32   30   33 1   
    33   30   38 1   
    34   31   32 2   
    35   31   41 1   
    36   33   34 1   
    37   33   39 1   
    38   33   40 1   
    39   34   35 1   
    40   34   36 1   
    41   41   42 1   
    42   41   45 1   
    43   42   43 1   
    44   42   46 1   
    45   42   47 1   
    46   43   44 2   
    47   43   48 1   
    48   48   49 1   
    49   48   56 1   
    50   49   50 1   
    51   49   52 1   
    52   49   57 1   
    53   50   51 2   
    54   50   62 1   
    55   52   53 1   
    56   52   58 1   
    57   52   59 1   
    58   53   54 1   
    59   53   55 2   
    60   54   60 1   
    61   54   61 1   
    62   62   63 1   
    63   62   66 1   
    64   63   64 1   
    65   63   67 1   
    66   63   68 1   
    67   64   65 2   
    68   64   69 1   
    69   69   70 1   
    70   69   76 1   
    71   70   71 1   
    72   70   73 1   
    73   70   77 1   
    74   71   72 2   
    75   71   83 1   
    76   73   74 1   
    77   73   75 1   
    78   73   78 1   
    79   74   80 1   
    80   74   81 1   
    81   74   82 1   
    82   75   79 1   
    83   83   84 1   
    84   83   91 1   
    85   84   85 1   
    86   84   87 1   
    87   84   92 1   
    88   85   86 2   
    89   85  102 1   
    90   87   88 1   
    91   87   89 1   
    92   87   93 1   
    93   88   90 1   
    94   88   94 1   
    95   88   95 1   
    96   89   96 1   
    97   89   97 1   
    98   89   98 1   
    99   90   99 1   
   100   90  100 1   
   101   90  101 1   
   102  102  103 1   
   103  102  110 1   
   104  103  104 1   
   105  103  106 1   
   106  103  111 1   
   107  104  105 2   
   108  104  114 1   
   109  106  107 1   
   110  106  112 1   
   111  106  113 1   
   112  107  108 1   
   113  107  109 1   
   114  114  115 1   
   115  114  125 1   
   116  115  116 1   
   117  115  118 1   
   118  115  126 1   
   119  116  117 2   
   120  116  134 1   
   121  118  119 1   
   122  118  127 1   
   123  118  128 1   
   124  119  120 ar  
   125  119  121 ar  
   126  120  122 ar  
   127  120  129 1   
   128  121  123 ar  
   129  121  130 1   
   130  122  124 ar  
   131  122  131 1   
   132  123  124 ar  
   133  123  132 1   
   134  124  133 1   
   135  134  135 1   
   136  134  140 1   
   137  135  136 1   
   138  135  138 1   
   139  135  141 1   
   140  136  137 2   
   141  136  148 1   
   142  138  139 1   
   143  138  142 1   
   144  138  143 1   
   145  139  140 1   
   146  139  144 1   
   147  139  145 1   
   148  140  146 1   
   149  140  147 1   
   150  148  149 1   
   151  148  157 1   
   152  149  150 1   
   153  149  152 1   
   154  149  158 1   
   155  150  151 2   
   156  150  163 1   
   157  152  153 1   
   158  152  159 1   
   159  152  160 1   
   160  153  154 1   
   161  153  161 1   
   162  153  162 1   
   163  154  155 1   
   164  154  156 1   
   165  163  164 1   
   166  163  168 1   
   167  164  165 1   
   168  164  166 1   
   169  164  167 1   
   170  170  171 1   
   171  170  172 1   
   172  173  174 1   
   173  173  175 1   
   174  176  177 1   
   175  176  178 1   
@<TRIPOS>SUBSTRUCTURE
     1 MOL         1 TEMP              0 ****  ****    0 ROOT
