@<TRIPOS>MOLECULE
MOL
  181   177     1     0     0
SMALL
resp


@<TRIPOS>ATOM
      1 C1         -0.7150    5.9820    2.8040 c3        1 MOL     -0.330360
      2 C2         -2.1100    5.8120    2.2700 c         1 MOL      0.828682
      3 O1         -2.4680    6.4900    1.2920 o         1 MOL     -0.645619
      4 H1         -0.0680    5.2160    2.3780 hc        1 MOL      0.076445
      5 H2         -0.3390    6.9680    2.5310 hc        1 MOL      0.076445
      6 H3         -0.7270    5.8840    3.8900 hc        1 MOL      0.076445
      7 N1         -2.8630    4.9150    2.8370 n         1 MOL     -0.931219
      8 C3         -4.2530    4.4700    2.3200 c3        1 MOL      0.712237
      9 C4         -4.1100    3.8970    0.9020 c         1 MOL      0.616128
     10 O2         -3.6720    2.7810    0.8580 o         1 MOL     -0.611828
     11 C5         -4.9180    3.5520    3.3130 c3        1 MOL     -0.364329
     12 C6         -6.3470    3.1130    2.9630 c         1 MOL      0.729148
     13 O3         -6.7760    1.9230    3.2540 o         1 MOL     -0.729296
     14 O4         -6.9830    3.9320    2.3090 o         1 MOL     -0.729296
     15 H4         -2.6060    4.4150    3.6720 hn        1 MOL      0.376659
     16 H5         -4.8750    5.3710    2.2550 h1        1 MOL     -0.093527
     17 H6         -4.8480    4.0450    4.2820 hc        1 MOL      0.022476
     18 H7         -4.2120    2.7170    3.3340 hc        1 MOL      0.022476
     19 N2         -4.7020    4.5240   -0.1480 n         1 MOL     -0.655537
     20 C7         -4.6930    4.1120   -1.5800 c3        1 MOL      0.726159
     21 C8         -3.2370    3.8720   -2.0240 c         1 MOL      0.165022
     22 O5         -2.3190    4.6560   -1.8280 o         1 MOL     -0.513246
     23 C9         -5.3200    5.1860   -2.5100 c3        1 MOL     -0.453611
     24 H8         -5.3400    5.2980    0.0110 hn        1 MOL      0.295462
     25 H9         -5.3280    3.2250   -1.6340 h1        1 MOL     -0.102502
     26 H10        -5.4140    4.8260   -3.5370 hc        1 MOL      0.104657
     27 H11        -6.3360    5.4350   -2.1850 hc        1 MOL      0.104657
     28 H12        -4.6390    6.0350   -2.4890 hc        1 MOL      0.104657
     29 N3         -2.9130    2.8940   -2.7940 n         1 MOL     -0.167559
     30 C10        -3.9040    2.0280   -3.4820 c3        1 MOL      0.079210
     31 C11        -4.2610    0.8070   -2.5570 c         1 MOL      0.322238
     32 O6         -3.5590    0.4880   -1.6490 o         1 MOL     -0.379411
     33 C12        -3.2860    1.4800   -4.7750 c3        1 MOL     -0.356036
     34 C13        -1.8850    0.8890   -4.7010 c         1 MOL      0.743357
     35 O7         -1.5410    0.2570   -5.7560 o         1 MOL     -0.681148
     36 O8         -1.2310    0.8530   -3.6020 o         1 MOL     -0.681148
     37 H13        -1.9310    2.7530   -2.9970 hn        1 MOL      0.269476
     38 H14        -4.8360    2.5550   -3.6980 h1        1 MOL      0.006468
     39 H15        -3.0730    2.3550   -5.3830 hc        1 MOL      0.075276
     40 H16        -3.9400    0.7280   -5.2250 hc        1 MOL      0.075276
     41 N4         -5.3670    0.1470   -2.7680 n         1 MOL     -0.380827
     42 C14        -5.9410   -0.7800   -1.8170 c3        1 MOL     -0.058700
     43 C15        -6.5930   -0.1470   -0.5690 c         1 MOL      0.562244
     44 O9         -6.6120    1.0740   -0.4190 o         1 MOL     -0.447963
     45 H17        -5.9270    0.4110   -3.5680 hn        1 MOL      0.295333
     46 H18        -5.1640   -1.4840   -1.4920 h1        1 MOL      0.045150
     47 H19        -6.7570   -1.3100   -2.2990 h1        1 MOL      0.045150
     48 N5         -7.1820   -0.8810    0.3520 n         1 MOL     -0.490362
     49 C16        -7.3210   -2.3190    0.4330 c3        1 MOL      0.110647
     50 C17        -6.5450   -3.1540    1.5300 c         1 MOL      0.570262
     51 O10        -6.6610   -4.3380    1.5320 o         1 MOL     -0.564555
     52 C18        -8.8460   -2.6440    0.4600 c3        1 MOL     -0.189387
     53 C19        -9.5890   -1.9800   -0.7200 c         1 MOL      0.642906
     54 N6         -9.6530   -2.6560   -1.8010 n         1 MOL     -0.757069
     55 O11       -10.0500   -0.8760   -0.5980 o         1 MOL     -0.530301
     56 H20        -7.5270   -0.3590    1.1440 hn        1 MOL      0.308179
     57 H21        -6.8630   -2.7220   -0.4650 h1        1 MOL      0.017036
     58 H22        -9.2630   -2.4530    1.4540 hc        1 MOL      0.056020
     59 H23        -8.9400   -3.7220    0.3490 hc        1 MOL      0.056020
     60 H24        -9.1010   -3.4860   -1.9610 hn        1 MOL      0.353306
     61 H25       -10.2060   -2.2770   -2.5490 hn        1 MOL      0.353306
     62 N7         -5.6930   -2.5450    2.3650 n         1 MOL     -0.339142
     63 C20        -4.9060   -3.2890    3.4220 c3        1 MOL     -0.263338
     64 C21        -3.4830   -3.7190    2.9610 c         1 MOL      0.599384
     65 O12        -2.7270   -4.1530    3.8060 o         1 MOL     -0.566236
     66 H26        -5.6360   -1.5420    2.3350 hn        1 MOL      0.249738
     67 H27        -5.4260   -4.1850    3.7600 h1        1 MOL      0.156230
     68 H28        -4.7870   -2.6160    4.2660 h1        1 MOL      0.156230
     69 N8         -3.0970   -3.5800    1.6570 n         1 MOL     -0.273247
     70 C22        -1.9380   -4.3750    1.1980 c3        1 MOL     -0.196960
     71 C23        -0.6540   -3.5900    0.6970 c         1 MOL      0.858510
     72 O13        -0.6650   -2.6220   -0.0630 o         1 MOL     -0.612716
     73 C24        -2.4350   -5.2570    0.0200 c3        1 MOL      0.281848
     74 C25        -3.3150   -6.4440    0.3810 c3        1 MOL     -0.440938
     75 O14        -3.1500   -4.5240   -0.9690 oh        1 MOL     -0.586314
     76 H29        -3.7180   -3.1350    0.9940 hn        1 MOL      0.228689
     77 H30        -1.5710   -5.0180    2.0040 h1        1 MOL      0.130289
     78 H31        -1.5890   -5.6870   -0.5090 h1        1 MOL      0.042684
     79 H32        -3.8050   -5.1460   -1.2780 ho        1 MOL      0.385727
     80 H33        -4.0790   -6.0700    1.0620 hc        1 MOL      0.120729
     81 H34        -3.6380   -7.0390   -0.4790 hc        1 MOL      0.120729
     82 H35        -2.7480   -7.1240    1.0140 hc        1 MOL      0.120729
     83 N9          0.4690   -4.0680    1.2160 n         1 MOL     -0.659720
     84 C26         1.8470   -3.4650    1.0480 c3        1 MOL     -0.148180
     85 C27         2.5160   -3.8420   -0.2930 c         1 MOL      0.592776
     86 O15         2.5520   -4.9910   -0.7760 o         1 MOL     -0.583493
     87 C28         2.7020   -3.8820    2.2340 c3        1 MOL      0.269792
     88 C29         4.1650   -3.5470    2.1410 c3        1 MOL      0.117514
     89 C30         2.1860   -3.4610    3.5350 c3        1 MOL     -0.156451
     90 C31         5.0400   -4.1830    3.2670 c3        1 MOL     -0.140081
     91 H36         0.4040   -4.8330    1.8810 hn        1 MOL      0.308099
     92 H37         1.8280   -2.3820    1.1100 h1        1 MOL      0.231437
     93 H38         2.7500   -4.9730    2.2360 hc        1 MOL     -0.038140
     94 H39         4.3710   -2.4780    2.1320 hc        1 MOL     -0.045012
     95 H40         4.5240   -3.8460    1.1530 hc        1 MOL     -0.045012
     96 H41         2.7240   -2.5980    3.9420 hc        1 MOL      0.025397
     97 H42         1.1190   -3.2550    3.4870 hc        1 MOL      0.025397
     98 H43         2.3660   -4.2430    4.2750 hc        1 MOL      0.025397
     99 H44         6.0730   -3.9090    3.0480 hc        1 MOL      0.018182
    100 H45         4.8020   -3.6000    4.1510 hc        1 MOL      0.018182
    101 H46         4.8550   -5.2470    3.3460 hc        1 MOL      0.018182
    102 N10         3.0050   -2.7640   -0.9520 n         1 MOL     -0.444338
    103 C32         3.7990   -2.8020   -2.2430 c3        1 MOL      0.392560
    104 C33         5.0370   -1.8540   -2.2810 c         1 MOL      0.286925
    105 O16         5.7410   -1.9710   -3.2290 o         1 MOL     -0.502036
    106 C34         2.8520   -2.5520   -3.3310 c3        1 MOL     -0.363924
    107 C35         2.1030   -1.2450   -3.1310 c         1 MOL      0.947226
    108 O17         0.9220   -1.2670   -2.7510 o         1 MOL     -0.750708
    109 O18         2.7080   -0.1760   -3.3670 o         1 MOL     -0.750708
    110 H47         2.8080   -1.9280   -0.4280 hn        1 MOL      0.141779
    111 H48         4.1210   -3.8380   -2.3260 h1        1 MOL      0.044738
    112 H49         2.2400   -3.4380   -3.5050 hc        1 MOL      0.054341
    113 H50         3.4740   -2.6200   -4.2280 hc        1 MOL      0.054341
    114 N11         5.4320   -1.2250   -1.1990 n         1 MOL     -0.507584
    115 C36         6.6500   -0.4460   -1.0610 c3        1 MOL      0.588164
    116 C37         6.4740    0.8300   -0.2800 c         1 MOL      0.214713
    117 O19         6.9890    0.9350    0.8060 o         1 MOL     -0.479237
    118 C38         7.8230   -1.2890   -0.5730 c3        1 MOL     -0.521157
    119 C39         9.1920   -0.7500   -0.9480 ca        1 MOL      0.227775
    120 C40        10.2230   -0.5140    0.0080 ca        1 MOL     -0.205426
    121 C41         9.5920   -0.6800   -2.2900 ca        1 MOL     -0.205426
    122 C42        11.5080   -0.1050   -0.3460 ca        1 MOL     -0.087636
    123 C43        10.8170   -0.1780   -2.6990 ca        1 MOL     -0.087636
    124 C44        11.8330    0.1270   -1.7040 ca        1 MOL     -0.192520
    125 H51         4.7210   -1.0370   -0.4960 hn        1 MOL      0.245538
    126 H52         6.9410   -0.1950   -2.0810 h1        1 MOL     -0.048226
    127 H53         7.6740   -2.3020   -0.9560 hc        1 MOL      0.150597
    128 H54         7.7730   -1.4080    0.5110 hc        1 MOL      0.150597
    129 H55         9.9980   -0.7970    1.0330 ha        1 MOL      0.132155
    130 H56         8.8920   -0.9590   -3.0650 ha        1 MOL      0.132155
    131 H57        12.2750    0.0560    0.3910 ha        1 MOL      0.099123
    132 H58        11.0290    0.0140   -3.7380 ha        1 MOL      0.099123
    133 H59        12.7570    0.5720   -2.0470 ha        1 MOL      0.117955
    134 N12         5.6230    1.7980   -0.7720 n         1 MOL     -0.012555
    135 C45         5.5470    3.1730   -0.2570 c3        1 MOL      0.000863
    136 C46         5.0880    3.2410    1.2380 c         1 MOL      0.136272
    137 O20         5.4380    4.2050    1.9620 o         1 MOL     -0.490645
    138 C47         4.4750    3.8490   -1.0930 c3        1 MOL     -0.027022
    139 C48         4.8250    3.2820   -2.4630 c3        1 MOL     -0.510528
    140 C49         5.2410    1.8520   -2.2170 c3        1 MOL     -0.043314
    141 H60         6.5130    3.6720   -0.3700 h1        1 MOL      0.088330
    142 H61         3.4780    3.4900   -0.8080 hc        1 MOL      0.076095
    143 H62         4.5630    4.9360   -1.1340 hc        1 MOL      0.076095
    144 H63         3.9190    3.1910   -3.0660 hc        1 MOL      0.173604
    145 H64         5.6530    3.8730   -2.8690 hc        1 MOL      0.173604
    146 H65         4.4390    1.1440   -2.4470 h1        1 MOL      0.121966
    147 H66         6.0520    1.6840   -2.9310 h1        1 MOL      0.121966
    148 N13         4.4250    2.2070    1.7480 n         1 MOL      0.084975
    149 C50         3.9910    1.9700    3.1230 c3        1 MOL     -0.093763
    150 C51         5.2660    1.8180    4.0210 c         1 MOL      0.366644
    151 O21         5.4170    2.5790    5.0030 o         1 MOL     -0.555481
    152 C52         3.0450    0.7160    3.2470 c3        1 MOL      0.276635
    153 C53         1.8410    0.8850    2.2960 c3        1 MOL     -0.492747
    154 C54         2.1640    0.2740    0.9010 c         1 MOL      0.604122
    155 O22         1.1540    0.1630    0.2010 o         1 MOL     -0.644182
    156 O23         3.2990    0.0150    0.5210 o         1 MOL     -0.644182
    157 H67         4.3220    1.4680    1.0670 hn        1 MOL      0.181763
    158 H68         3.5240    2.8400    3.5610 h1        1 MOL      0.077480
    159 H69         2.7650    0.6730    4.2960 hc        1 MOL     -0.063415
    160 H70         3.5970   -0.2090    3.0670 hc        1 MOL     -0.063415
    161 H71         1.6830    1.9580    2.2160 hc        1 MOL      0.128759
    162 H72         1.0460    0.3490    2.8110 hc        1 MOL      0.128759
    163 N14         6.1830    0.9690    3.6790 n         1 MOL     -0.120281
    164 C55         7.4340    0.7920    4.5300 c3        1 MOL     -0.175692
    165 H73         8.3000    0.6640    3.8800 h1        1 MOL      0.078495
    166 H74         7.5770    1.6740    5.1540 h1        1 MOL      0.078495
    167 H75         7.3220   -0.0880    5.1620 h1        1 MOL      0.078495
    168 H76         5.9700    0.2970    2.9620 hn        1 MOL      0.212531
    169 Ca1        -0.8920   -0.2430   -1.2880 Ca        1 MOL      1.647157
    170 O24        -2.5320   -2.1210   -2.2190 oh        1 MOL     -0.818600
    171 H77        -3.0550   -2.0170   -3.0170 ho        1 MOL      0.397325
    172 H78        -2.6740   -3.0270   -1.9440 ho        1 MOL      0.397325
    173 O25         1.3790    1.7590   -2.0210 oh        1 MOL     -0.818600
    174 H79         1.2090    1.7190   -1.0840 ho        1 MOL      0.397325
    175 H80         2.1120    1.1650   -2.1620 ho        1 MOL      0.397325
    176 O26        -2.1660   -0.4400    1.2980 oh        1 MOL     -0.818600
    177 O27        -1.3690    2.3060   -0.3630 oh        1 MOL     -0.818600
    178 H81        -2.0420   -0.3870    2.2480 ho        1 MOL      0.397325
    179 H82        -2.1380    2.4360    0.1790 ho        1 MOL      0.397325
    180 H83        -3.0740   -0.1830    1.1690 ho        1 MOL      0.397325
    181 H84        -1.1340    3.1800   -0.6770 ho        1 MOL      0.397325
@<TRIPOS>BOND
     1    1    2 1   
     2    1    4 1   
     3    1    5 1   
     4    1    6 1   
     5    2    3 2   
     6    2    7 1   
     7    7    8 1   
     8    7   15 1   
     9    8    9 1   
    10    8   11 1   
    11    8   16 1   
    12    9   10 2   
    13    9   19 1   
    14   11   12 1   
    15   11   17 1   
    16   11   18 1   
    17   12   13 1   
    18   12   14 1   
    19   19   20 1   
    20   19   24 1   
    21   20   21 1   
    22   20   23 1   
    23   20   25 1   
    24   21   22 2   
    25   21   29 1   
    26   23   26 1   
    27   23   27 1   
    28   23   28 1   
    29   29   30 1   
    30   29   37 1   
    31   30   31 1   
    32   30   33 1   
    33   30   38 1   
    34   31   32 2   
    35   31   41 1   
    36   33   34 1   
    37   33   39 1   
    38   33   40 1   
    39   34   35 1   
    40   34   36 1   
    41   41   42 1   
    42   41   45 1   
    43   42   43 1   
    44   42   46 1   
    45   42   47 1   
    46   43   44 2   
    47   43   48 1   
    48   48   49 1   
    49   48   56 1   
    50   49   50 1   
    51   49   52 1   
    52   49   57 1   
    53   50   51 2   
    54   50   62 1   
    55   52   53 1   
    56   52   58 1   
    57   52   59 1   
    58   53   54 1   
    59   53   55 2   
    60   54   60 1   
    61   54   61 1   
    62   62   63 1   
    63   62   66 1   
    64   63   64 1   
    65   63   67 1   
    66   63   68 1   
    67   64   65 2   
    68   64   69 1   
    69   69   70 1   
    70   69   76 1   
    71   70   71 1   
    72   70   73 1   
    73   70   77 1   
    74   71   72 2   
    75   71   83 1   
    76   73   74 1   
    77   73   75 1   
    78   73   78 1   
    79   74   80 1   
    80   74   81 1   
    81   74   82 1   
    82   75   79 1   
    83   83   84 1   
    84   83   91 1   
    85   84   85 1   
    86   84   87 1   
    87   84   92 1   
    88   85   86 2   
    89   85  102 1   
    90   87   88 1   
    91   87   89 1   
    92   87   93 1   
    93   88   90 1   
    94   88   94 1   
    95   88   95 1   
    96   89   96 1   
    97   89   97 1   
    98   89   98 1   
    99   90   99 1   
   100   90  100 1   
   101   90  101 1   
   102  102  103 1   
   103  102  110 1   
   104  103  104 1   
   105  103  106 1   
   106  103  111 1   
   107  104  105 2   
   108  104  114 1   
   109  106  107 1   
   110  106  112 1   
   111  106  113 1   
   112  107  108 1   
   113  107  109 1   
   114  114  115 1   
   115  114  125 1   
   116  115  116 1   
   117  115  118 1   
   118  115  126 1   
   119  116  117 2   
   120  116  134 1   
   121  118  119 1   
   122  118  127 1   
   123  118  128 1   
   124  119  120 ar  
   125  119  121 ar  
   126  120  122 ar  
   127  120  129 1   
   128  121  123 ar  
   129  121  130 1   
   130  122  124 ar  
   131  122  131 1   
   132  123  124 ar  
   133  123  132 1   
   134  124  133 1   
   135  134  135 1   
   136  134  140 1   
   137  135  136 1   
   138  135  138 1   
   139  135  141 1   
   140  136  137 2   
   141  136  148 1   
   142  138  139 1   
   143  138  142 1   
   144  138  143 1   
   145  139  140 1   
   146  139  144 1   
   147  139  145 1   
   148  140  146 1   
   149  140  147 1   
   150  148  149 1   
   151  148  157 1   
   152  149  150 1   
   153  149  152 1   
   154  149  158 1   
   155  150  151 2   
   156  150  163 1   
   157  152  153 1   
   158  152  159 1   
   159  152  160 1   
   160  153  154 1   
   161  153  161 1   
   162  153  162 1   
   163  154  155 1   
   164  154  156 1   
   165  163  164 1   
   166  163  168 1   
   167  164  165 1   
   168  164  166 1   
   169  164  167 1   
   170  170  171 1   
   171  170  172 1   
   172  173  174 1   
   173  173  175 1   
   174  176  178 1   
   175  176  180 1   
   176  177  179 1   
   177  177  181 1   
@<TRIPOS>SUBSTRUCTURE
     1 MOL         1 TEMP              0 ****  ****    0 ROOT
