@<TRIPOS>MOLECULE
MOL
  198   191     1     0     0
SMALL
resp


@<TRIPOS>ATOM
      1 C1          2.8870    5.7610    2.3090 c3        1 MOL     -0.099570
      2 C2          1.6680    5.3960    1.3900 c         1 MOL      0.610229
      3 O1          1.3610    4.2410    1.1430 o         1 MOL     -0.508478
      4 H1          3.6550    6.2550    1.7140 hc        1 MOL      0.012159
      5 H2          2.5560    6.4320    3.1030 hc        1 MOL      0.012159
      6 H3          3.2970    4.8520    2.7480 hc        1 MOL      0.012159
      7 N1          1.0890    6.3430    0.6010 n         1 MOL     -0.545643
      8 C3          0.0490    6.1420   -0.4760 c3        1 MOL     -0.054877
      9 C4         -1.2920    5.4310   -0.1130 c         1 MOL      0.637654
     10 O2         -2.1240    5.1550   -0.9860 o         1 MOL     -0.557184
     11 C5          0.6880    5.5570   -1.7120 c3        1 MOL     -0.170632
     12 C6          1.8400    6.3880   -2.2400 c         1 MOL      0.606327
     13 O3          3.0350    5.9550   -2.4760 o         1 MOL     -0.632970
     14 O4          1.5610    7.6130   -2.2900 o         1 MOL     -0.632970
     15 H4          1.2730    7.2980    0.8990 hn        1 MOL      0.292473
     16 H5         -0.2540    7.1510   -0.7360 h1        1 MOL      0.104958
     17 H6         -0.0910    5.3470   -2.4480 hc        1 MOL      0.082879
     18 H7          1.0300    4.5420   -1.4890 hc        1 MOL      0.082879
     19 N2         -1.5200    5.1790    1.1990 n         1 MOL     -0.318350
     20 C7         -2.7370    4.4520    1.6130 c3        1 MOL     -0.305605
     21 C8         -3.9600    5.3950    1.7090 c         1 MOL      0.459511
     22 O5         -3.8390    6.5680    1.8880 o         1 MOL     -0.527167
     23 C9         -2.4480    3.6230    2.9430 c3        1 MOL      0.034138
     24 C10        -2.0120    4.6510    4.0540 c3        1 MOL      0.134002
     25 C11        -1.3610    2.6280    2.6790 c3        1 MOL     -0.094020
     26 C12        -1.4940    3.9450    5.3460 c3        1 MOL     -0.251255
     27 H8         -0.8530    5.4920    1.8950 hn        1 MOL      0.207211
     28 H9         -2.8960    3.7210    0.8230 h1        1 MOL      0.198952
     29 H10        -3.3430    3.0740    3.2480 hc        1 MOL      0.087481
     30 H11        -2.8980    5.2360    4.2960 hc        1 MOL      0.005297
     31 H12        -1.2070    5.2830    3.7010 hc        1 MOL      0.005297
     32 H13        -1.0540    1.9730    3.4980 hc        1 MOL      0.028638
     33 H14        -1.5720    1.9140    1.8840 hc        1 MOL      0.028638
     34 H15        -0.4890    3.1960    2.3540 hc        1 MOL      0.028638
     35 H16        -0.4380    3.7650    5.1130 hc        1 MOL      0.055445
     36 H17        -1.5100    4.6360    6.1890 hc        1 MOL      0.055445
     37 H18        -2.0220    3.0180    5.5680 hc        1 MOL      0.055445
     38 N3         -5.2510    4.9290    1.6770 n         1 MOL     -0.206281
     39 C13        -5.7530    3.6040    1.4750 c3        1 MOL     -0.014196
     40 C14        -5.4780    2.9580    0.1200 c         1 MOL      0.488837
     41 O6         -5.2290    1.7680    0.0570 o         1 MOL     -0.551898
     42 C15        -7.3270    3.5950    1.5300 c3        1 MOL     -0.090318
     43 C16        -7.8090    4.3620    2.7500 c         1 MOL      0.629209
     44 O7         -8.1110    5.6210    2.6780 o         1 MOL     -0.672511
     45 O8         -7.8310    3.7340    3.8260 o         1 MOL     -0.672511
     46 H19        -5.9320    5.6700    1.6680 hn        1 MOL      0.196990
     47 H20        -5.2890    2.9000    2.1600 h1        1 MOL      0.034409
     48 H21        -7.7650    2.6000    1.4750 hc        1 MOL      0.016891
     49 H22        -7.6420    4.2060    0.6850 hc        1 MOL      0.016891
     50 N4         -5.5490    3.7270   -0.9790 n         1 MOL     -0.258971
     51 C17        -5.3310    3.1980   -2.2870 c3        1 MOL     -0.251768
     52 C18        -6.4010    2.2040   -2.6840 c         1 MOL      0.483120
     53 O9         -7.6250    2.5310   -2.7320 o         1 MOL     -0.575601
     54 H23        -5.6250    4.7380   -0.9390 hn        1 MOL      0.269768
     55 H24        -4.3290    2.7620   -2.4060 h1        1 MOL      0.115916
     56 H25        -5.3330    4.0240   -2.9870 h1        1 MOL      0.115916
     57 N5         -6.0000    1.0300   -3.0530 n         1 MOL     -0.364333
     58 C19        -6.8670   -0.0950   -3.5840 c3        1 MOL      0.072599
     59 C20        -7.5750   -0.7910   -2.4690 c         1 MOL      0.460350
     60 O10        -8.4720   -1.6040   -2.7490 o         1 MOL     -0.569239
     61 C21        -6.1080   -1.1440   -4.3890 c3        1 MOL     -0.259403
     62 C22        -4.9740   -1.9370   -3.7070 c         1 MOL      0.829943
     63 O11        -4.3630   -2.7270   -4.4720 o         1 MOL     -0.741251
     64 O12        -4.7590   -1.7690   -2.5130 o         1 MOL     -0.741251
     65 H26        -5.0110    0.8610   -3.1980 hn        1 MOL      0.273460
     66 H27        -7.6580    0.3300   -4.1980 h1        1 MOL      0.077675
     67 H28        -5.6200   -0.6770   -5.2490 hc        1 MOL      0.036758
     68 H29        -6.8670   -1.8940   -4.6150 hc        1 MOL      0.036758
     69 N6         -7.2900   -0.4300   -1.2020 n         1 MOL     -0.236631
     70 C23        -7.8100   -1.0980    0.0650 c3        1 MOL     -0.336373
     71 C24        -7.3200   -2.5150    0.4030 c         1 MOL      0.554630
     72 O13        -7.5890   -2.9140    1.5190 o         1 MOL     -0.578235
     73 H30        -6.5830    0.2780   -1.0490 hn        1 MOL      0.251785
     74 H31        -8.8980   -1.1010    0.0100 h1        1 MOL      0.167003
     75 H32        -7.5450   -0.4210    0.8880 h1        1 MOL      0.167003
     76 N7         -6.5370   -3.1390   -0.4630 n         1 MOL     -0.171993
     77 C25        -5.9130   -4.4220   -0.4140 c3        1 MOL      0.259605
     78 C26        -5.0210   -4.6450    0.8520 c         1 MOL      0.178877
     79 O14        -4.6630   -5.8190    1.1450 o         1 MOL     -0.499148
     80 C27        -6.9620   -5.5190   -0.5670 c3        1 MOL      0.146763
     81 C28        -7.8770   -5.3830   -1.8140 c3        1 MOL     -0.120489
     82 C29        -8.7280   -6.5770   -2.1520 c         1 MOL      0.641636
     83 N8         -9.7090   -6.4230   -2.9640 n         1 MOL     -0.774894
     84 O15        -8.5350   -7.7240   -1.7170 o         1 MOL     -0.588011
     85 H33        -6.3330   -2.6220   -1.2960 hn        1 MOL      0.112349
     86 H34        -5.1600   -4.4770   -1.2020 h1        1 MOL      0.050576
     87 H35        -7.6280   -5.5110    0.2900 hc        1 MOL     -0.047752
     88 H36        -6.4860   -6.4810   -0.7370 hc        1 MOL     -0.047752
     89 H37        -7.1200   -5.2020   -2.5780 hc        1 MOL      0.023298
     90 H38        -8.4230   -4.4560   -1.6830 hc        1 MOL      0.023298
     91 H39        -9.8820   -5.4770   -3.2990 hn        1 MOL      0.350308
     92 H40       -10.1460   -7.2650   -3.3020 hn        1 MOL      0.350308
     93 N9         -4.5080   -3.6410    1.5350 n         1 MOL     -0.008894
     94 C30        -3.7130   -3.6140    2.6750 c3        1 MOL     -0.106885
     95 C31        -2.1980   -3.4350    2.3460 c         1 MOL      0.534037
     96 O16        -1.3810   -3.9290    3.1530 o         1 MOL     -0.531216
     97 C32        -4.1910   -2.5120    3.7100 c3        1 MOL      0.179321
     98 C33        -4.3300   -1.0790    3.0410 c3        1 MOL     -0.299633
     99 C34        -5.5960   -2.8850    4.3100 c3        1 MOL     -0.299633
    100 H41        -4.6890   -2.7100    1.2010 hn        1 MOL      0.118270
    101 H42        -3.8010   -4.5890    3.1670 h1        1 MOL      0.076603
    102 H43        -3.3560   -2.4280    4.3920 hc        1 MOL     -0.001699
    103 H44        -5.2080   -1.2220    2.4060 hc        1 MOL      0.079088
    104 H45        -4.5020   -0.2780    3.7610 hc        1 MOL      0.079088
    105 H46        -3.4950   -0.7590    2.4240 hc        1 MOL      0.079088
    106 H47        -5.7020   -3.9350    4.5580 hc        1 MOL      0.079088
    107 H48        -5.5400   -2.3760    5.2780 hc        1 MOL      0.079088
    108 H49        -6.4370   -2.5920    3.6910 hc        1 MOL      0.079088
    109 N10        -1.8460   -2.5620    1.3980 n         1 MOL     -0.406623
    110 C35        -0.4870   -2.1530    1.3020 c3        1 MOL      0.094164
    111 C36         0.3830   -3.1780    0.5330 c         1 MOL      0.492180
    112 O17        -0.1480   -4.2480    0.1740 o         1 MOL     -0.517426
    113 C37        -0.3690   -0.7920    0.6290 c3        1 MOL     -0.038797
    114 C38         0.8280   -0.0760    1.0960 c         1 MOL      0.439129
    115 N11         0.7560    1.1330    0.7590 n         1 MOL     -0.519794
    116 O18         1.7780   -0.5500    1.7950 o         1 MOL     -0.524257
    117 H50        -2.4490   -2.3630    0.6070 hn        1 MOL      0.245905
    118 H51        -0.1060   -2.1770    2.3250 h1        1 MOL      0.064694
    119 H52        -1.2560   -0.2010    0.8500 hc        1 MOL      0.038799
    120 H53        -0.3250   -0.8500   -0.4550 hc        1 MOL      0.038799
    121 H54        -0.0430    1.4620    0.2200 hn        1 MOL      0.298712
    122 H55         1.4840    1.7300    1.1200 hn        1 MOL      0.298712
    123 N12         1.6950   -2.8970    0.3240 n         1 MOL     -0.436817
    124 C39         2.7530   -3.8040   -0.1540 c3        1 MOL      0.066549
    125 C40         4.1600   -3.2810    0.2170 c         1 MOL      0.539212
    126 O19         4.4230   -2.0860    0.2880 o         1 MOL     -0.526267
    127 C41         2.6720   -3.8600   -1.6710 c3        1 MOL     -0.218618
    128 C42         3.6790   -4.8160   -2.2160 ca        1 MOL      0.166253
    129 C43         4.7900   -4.3040   -2.8420 ca        1 MOL     -0.204269
    130 C44         3.4410   -6.1620   -2.2260 ca        1 MOL     -0.204269
    131 C45         5.7820   -5.1680   -3.3690 ca        1 MOL     -0.284496
    132 C46         4.5020   -7.0520   -2.6340 ca        1 MOL     -0.284496
    133 C47         5.6920   -6.5560   -3.2850 ca        1 MOL      0.348071
    134 O20         6.6790   -7.3340   -3.7870 oh        1 MOL     -0.493285
    135 H56         1.8390   -1.9380    0.6170 hn        1 MOL      0.261288
    136 H57         2.5940   -4.7480    0.3610 h1        1 MOL      0.093580
    137 H58         2.9680   -2.8620   -2.0050 hc        1 MOL      0.087513
    138 H59         1.7390   -4.1160   -2.1710 hc        1 MOL      0.087513
    139 H60         4.8700   -3.2310   -2.9840 ha        1 MOL      0.150096
    140 H61         2.7340   -6.7060   -1.6130 ha        1 MOL      0.150096
    141 H62         6.6670   -4.7460   -3.8300 ha        1 MOL      0.147126
    142 H63         4.3700   -8.1220   -2.5120 ha        1 MOL      0.147126
    143 H64         7.3910   -6.7570   -4.0820 ho        1 MOL      0.355606
    144 N13         5.0910   -4.1670    0.5520 n         1 MOL     -0.585177
    145 C48         6.4120   -3.8130    0.9420 c3        1 MOL      0.538064
    146 C49         7.4580   -3.7970   -0.2550 c         1 MOL      0.301398
    147 O21         7.6560   -4.8770   -0.8940 o         1 MOL     -0.509614
    148 C50         6.9010   -4.8350    1.9870 c3        1 MOL     -0.242797
    149 C51         6.3200   -4.6450    3.3560 c3        1 MOL     -0.079174
    150 C52         6.8590   -5.7310    4.3080 c         1 MOL      0.663574
    151 O22         6.6640   -6.9360    4.0000 o         1 MOL     -0.646993
    152 O23         7.1930   -5.4270    5.4760 o         1 MOL     -0.646993
    153 H65         4.8410   -5.1480    0.4720 hn        1 MOL      0.343167
    154 H66         6.4620   -2.8260    1.4090 h1        1 MOL     -0.075823
    155 H67         7.9810   -4.7180    2.0660 hc        1 MOL      0.056108
    156 H68         6.6230   -5.8540    1.7250 hc        1 MOL      0.056108
    157 H69         5.2580   -4.8820    3.2590 hc        1 MOL      0.016485
    158 H70         6.5800   -3.6340    3.6540 hc        1 MOL      0.016485
    159 N14         8.1270   -2.6620   -0.5650 n         1 MOL     -0.401778
    160 C53         7.7810   -1.3370   -0.0770 c3        1 MOL      0.038054
    161 C54         8.3690   -1.0610    1.3050 c         1 MOL      0.461193
    162 O24         9.2280   -1.7740    1.8490 o         1 MOL     -0.590672
    163 C55         8.3740   -0.3980   -1.1050 c3        1 MOL     -0.141303
    164 C56         8.2670    1.0960   -0.7650 c3        1 MOL     -0.060122
    165 C57         6.8220    1.5460   -0.4940 c         1 MOL      0.116624
    166 O25         6.0690    1.8760   -1.4460 o         1 MOL     -0.358236
    167 O26         6.3860    1.5040    0.6290 o         1 MOL     -0.358236
    168 H71         8.7500   -2.7200   -1.3540 hn        1 MOL      0.264641
    169 H72         6.6950   -1.2560    0.0270 h1        1 MOL      0.162559
    170 H73         7.8920   -0.5860   -2.0630 hc        1 MOL      0.062155
    171 H74         9.4550   -0.5200   -1.1500 hc        1 MOL      0.062155
    172 H75         8.5950    1.6940   -1.6220 hc        1 MOL      0.015519
    173 H76         8.8630    1.3120    0.1230 hc        1 MOL      0.015519
    174 N15         7.7340   -0.2170    2.0540 n         1 MOL      0.066097
    175 C58         8.0480    0.5220    3.2970 c3        1 MOL     -0.302301
    176 H77         8.8930    1.1870    3.1190 h1        1 MOL      0.100840
    177 H78         7.1820    1.1100    3.5990 h1        1 MOL      0.100840
    178 H79         8.3010   -0.1860    4.0860 h1        1 MOL      0.100840
    179 H80         6.9070    0.1550    1.6150 hn        1 MOL      0.030550
    180 Ca1         5.4450    5.5470   -1.7930 Ca        1 MOL      1.597694
    181 O27         3.9330    3.4250   -0.6890 oh        1 MOL     -0.828576
    182 H81         4.5460    2.6880   -0.6270 ho        1 MOL      0.374674
    183 H82         3.5740    3.5150    0.1910 ho        1 MOL      0.374674
    184 O28         6.3320    4.3430    0.3580 oh        1 MOL     -0.828576
    185 H83         6.4470    3.4090    0.5750 ho        1 MOL      0.374674
    186 H84         7.1600    4.7450    0.6230 ho        1 MOL      0.374674
    187 O29         5.7870    5.9950   -4.5800 oh        1 MOL     -0.828576
    188 H85         6.1400    6.8600   -4.7830 ho        1 MOL      0.374674
    189 H86         6.3050    5.3910   -5.1210 ho        1 MOL      0.374674
    190 O30         4.6300    8.3550   -2.4340 oh        1 MOL     -0.828576
    191 H87         4.7000    9.1950   -2.8980 ho        1 MOL      0.374674
    192 H88         3.6820    8.2040   -2.3560 ho        1 MOL      0.374674
    193 O31         7.9120    4.8590   -2.4550 oh        1 MOL     -0.828576
    194 H89         8.5370    5.5740   -2.5180 ho        1 MOL      0.374674
    195 H90         8.1600    4.2630   -3.1590 ho        1 MOL      0.374674
    196 O32         5.1010    3.1780   -3.4830 oh        1 MOL     -0.828576
    197 H91         5.3460    2.6850   -4.2690 ho        1 MOL      0.374674
    198 H92         5.2580    2.5860   -2.7510 ho        1 MOL      0.374674
@<TRIPOS>BOND
     1    1    2 1   
     2    1    4 1   
     3    1    5 1   
     4    1    6 1   
     5    2    3 2   
     6    2    7 1   
     7    7    8 1   
     8    7   15 1   
     9    8    9 1   
    10    8   11 1   
    11    8   16 1   
    12    9   10 2   
    13    9   19 1   
    14   11   12 1   
    15   11   17 1   
    16   11   18 1   
    17   12   13 1   
    18   12   14 1   
    19   19   20 1   
    20   19   27 1   
    21   20   21 1   
    22   20   23 1   
    23   20   28 1   
    24   21   22 2   
    25   21   38 1   
    26   23   24 1   
    27   23   25 1   
    28   23   29 1   
    29   24   26 1   
    30   24   30 1   
    31   24   31 1   
    32   25   32 1   
    33   25   33 1   
    34   25   34 1   
    35   26   35 1   
    36   26   36 1   
    37   26   37 1   
    38   38   39 1   
    39   38   46 1   
    40   39   40 1   
    41   39   42 1   
    42   39   47 1   
    43   40   41 2   
    44   40   50 1   
    45   42   43 1   
    46   42   48 1   
    47   42   49 1   
    48   43   44 1   
    49   43   45 1   
    50   50   51 1   
    51   50   54 1   
    52   51   52 1   
    53   51   55 1   
    54   51   56 1   
    55   52   53 2   
    56   52   57 1   
    57   57   58 1   
    58   57   65 1   
    59   58   59 1   
    60   58   61 1   
    61   58   66 1   
    62   59   60 2   
    63   59   69 1   
    64   61   62 1   
    65   61   67 1   
    66   61   68 1   
    67   62   63 1   
    68   62   64 1   
    69   69   70 1   
    70   69   73 1   
    71   70   71 1   
    72   70   74 1   
    73   70   75 1   
    74   71   72 2   
    75   71   76 1   
    76   76   77 1   
    77   76   85 1   
    78   77   78 1   
    79   77   80 1   
    80   77   86 1   
    81   78   79 2   
    82   78   93 1   
    83   80   81 1   
    84   80   87 1   
    85   80   88 1   
    86   81   82 1   
    87   81   89 1   
    88   81   90 1   
    89   82   83 1   
    90   82   84 2   
    91   83   91 1   
    92   83   92 1   
    93   93   94 1   
    94   93  100 1   
    95   94   95 1   
    96   94   97 1   
    97   94  101 1   
    98   95   96 2   
    99   95  109 1   
   100   97   98 1   
   101   97   99 1   
   102   97  102 1   
   103   98  103 1   
   104   98  104 1   
   105   98  105 1   
   106   99  106 1   
   107   99  107 1   
   108   99  108 1   
   109  109  110 1   
   110  109  117 1   
   111  110  111 1   
   112  110  113 1   
   113  110  118 1   
   114  111  112 2   
   115  111  123 1   
   116  113  114 1   
   117  113  119 1   
   118  113  120 1   
   119  114  115 1   
   120  114  116 2   
   121  115  121 1   
   122  115  122 1   
   123  123  124 1   
   124  123  135 1   
   125  124  125 1   
   126  124  127 1   
   127  124  136 1   
   128  125  126 2   
   129  125  144 1   
   130  127  128 1   
   131  127  137 1   
   132  127  138 1   
   133  128  129 ar  
   134  128  130 ar  
   135  129  131 ar  
   136  129  139 1   
   137  130  132 ar  
   138  130  140 1   
   139  131  133 ar  
   140  131  141 1   
   141  132  133 ar  
   142  132  142 1   
   143  133  134 1   
   144  134  143 1   
   145  144  145 1   
   146  144  153 1   
   147  145  146 1   
   148  145  148 1   
   149  145  154 1   
   150  146  147 2   
   151  146  159 1   
   152  148  149 1   
   153  148  155 1   
   154  148  156 1   
   155  149  150 1   
   156  149  157 1   
   157  149  158 1   
   158  150  151 1   
   159  150  152 1   
   160  159  160 1   
   161  159  168 1   
   162  160  161 1   
   163  160  163 1   
   164  160  169 1   
   165  161  162 2   
   166  161  174 1   
   167  163  164 1   
   168  163  170 1   
   169  163  171 1   
   170  164  165 1   
   171  164  172 1   
   172  164  173 1   
   173  165  166 1   
   174  165  167 1   
   175  174  175 1   
   176  174  179 1   
   177  175  176 1   
   178  175  177 1   
   179  175  178 1   
   180  181  182 1   
   181  181  183 1   
   182  184  185 1   
   183  184  186 1   
   184  187  188 1   
   185  187  189 1   
   186  190  191 1   
   187  190  192 1   
   188  193  194 1   
   189  193  195 1   
   190  196  197 1   
   191  196  198 1   
@<TRIPOS>SUBSTRUCTURE
     1 MOL         1 TEMP              0 ****  ****    0 ROOT
