@<TRIPOS>MOLECULE
MOL
  192   187     1     0     0
SMALL
resp


@<TRIPOS>ATOM
      1 C1          4.2780    4.3830   -3.4900 c3        1 MOL     -0.417311
      2 C2          5.0680    3.4110   -2.5220 c         1 MOL      0.722902
      3 O1          4.5040    3.0400   -1.4970 o         1 MOL     -0.541393
      4 H1          3.2200    4.1220   -3.4810 hc        1 MOL      0.105239
      5 H2          4.4010    5.4120   -3.1510 hc        1 MOL      0.105239
      6 H3          4.6670    4.2840   -4.5030 hc        1 MOL      0.105239
      7 N1          6.2860    3.0230   -2.8100 n         1 MOL     -0.661719
      8 C3          6.9950    1.8600   -2.2120 c3        1 MOL      0.198904
      9 C4          6.0520    0.7370   -1.8380 c         1 MOL      0.385484
     10 O2          5.6720    0.4490   -0.7120 o         1 MOL     -0.573412
     11 C5          7.9920    2.1850   -1.0980 c3        1 MOL     -0.035558
     12 C6          7.4310    3.2740   -0.1150 c         1 MOL      0.694594
     13 O3          6.6130    2.9910    0.7560 o         1 MOL     -0.706944
     14 O4          7.9220    4.4300   -0.2230 o         1 MOL     -0.706944
     15 H4          6.7570    3.3020   -3.6650 hn        1 MOL      0.328050
     16 H5          7.5600    1.3580   -3.0050 h1        1 MOL      0.017974
     17 H6          8.8360    2.7130   -1.5600 hc        1 MOL     -0.011822
     18 H7          8.4120    1.2820   -0.6620 hc        1 MOL     -0.011822
     19 N2          5.7360   -0.0420   -2.8570 n         1 MOL     -0.393160
     20 C7          5.0320   -1.3680   -2.8670 c3        1 MOL      0.118431
     21 C8          5.7450   -2.4750   -2.0640 c         1 MOL      0.330562
     22 O5          5.9450   -3.5380   -2.6350 o         1 MOL     -0.565910
     23 C9          3.5090   -1.3330   -2.5530 c3        1 MOL      0.341514
     24 C10         2.7530   -2.6330   -2.8450 c3        1 MOL     -0.177706
     25 C11         2.9530   -0.0920   -3.1820 c3        1 MOL     -0.141947
     26 C12         2.7090   -3.0900   -4.3230 c3        1 MOL     -0.339757
     27 H8          6.1520    0.1840   -3.7440 hn        1 MOL      0.240650
     28 H9          5.0250   -1.6990   -3.9060 h1        1 MOL      0.023838
     29 H10         3.3690   -1.0840   -1.5040 hc        1 MOL     -0.132179
     30 H11         1.7140   -2.5440   -2.5460 hc        1 MOL      0.099235
     31 H12         3.2290   -3.4350   -2.2680 hc        1 MOL      0.099235
     32 H13         1.8690   -0.1730   -3.2940 hc        1 MOL      0.004222
     33 H14         3.1980    0.7570   -2.5400 hc        1 MOL      0.004222
     34 H15         3.4140   -0.0220   -4.1600 hc        1 MOL      0.004222
     35 H16         3.7380   -3.2530   -4.6440 hc        1 MOL      0.077643
     36 H17         2.0450   -3.9490   -4.3200 hc        1 MOL      0.077643
     37 H18         2.2780   -2.2900   -4.9260 hc        1 MOL      0.077643
     38 N3          6.0910   -2.3570   -0.7580 n         1 MOL      0.034015
     39 C13         6.8070   -3.3910   -0.0690 c3        1 MOL      0.147873
     40 C14         6.0710   -4.7650    0.1230 c         1 MOL      0.598719
     41 O6          6.7450   -5.7620   -0.0850 o         1 MOL     -0.607463
     42 C15         7.4340   -2.7650    1.1970 c3        1 MOL     -0.204399
     43 C16         8.2500   -1.5260    0.9140 c         1 MOL      0.685378
     44 O7          8.8010   -1.4760   -0.2160 o         1 MOL     -0.697393
     45 O8          8.3410   -0.6470    1.8170 o         1 MOL     -0.697393
     46 H19         5.5530   -1.6930   -0.2080 hn        1 MOL      0.026930
     47 H20         7.7020   -3.5680   -0.6750 h1        1 MOL      0.018024
     48 H21         8.0410   -3.5740    1.6220 hc        1 MOL      0.032841
     49 H22         6.6150   -2.5080    1.8770 hc        1 MOL      0.032841
     50 N4          4.7550   -4.9600    0.3780 n         1 MOL     -0.597381
     51 C17         3.8110   -3.9790    0.8920 c3        1 MOL      0.251735
     52 C18         4.0370   -3.9890    2.4490 c         1 MOL      0.284058
     53 O9          4.8320   -4.7790    3.0080 o         1 MOL     -0.534099
     54 H23         4.4710   -5.9200    0.4540 hn        1 MOL      0.309627
     55 H24         2.8320   -4.4090    0.6930 h1        1 MOL      0.009515
     56 H25         3.9860   -2.9760    0.4990 h1        1 MOL      0.009515
     57 N5          3.4850   -3.0850    3.1910 n         1 MOL     -0.226324
     58 C19         2.2720   -2.3060    2.8680 c3        1 MOL      0.071948
     59 C20         2.4880   -1.1550    1.7680 c         1 MOL      0.026251
     60 O10         3.6230   -0.7620    1.5040 o         1 MOL     -0.171893
     61 C21         1.6540   -1.6910    4.1160 c3        1 MOL     -0.498235
     62 C22         2.6700   -1.1020    5.0560 c         1 MOL      0.853466
     63 O11         2.6120    0.1380    5.0790 o         1 MOL     -0.715900
     64 O12         3.4610   -1.7460    5.7090 o         1 MOL     -0.715900
     65 H26         3.7690   -3.1640    4.1590 hn        1 MOL      0.290552
     66 H27         1.5400   -2.9430    2.3910 h1        1 MOL      0.064293
     67 H28         1.1610   -2.5130    4.6350 hc        1 MOL      0.112450
     68 H29         0.9920   -0.8530    3.9030 hc        1 MOL      0.112450
     69 N6          1.4590   -0.7200    0.9930 n         1 MOL     -0.063725
     70 C23         0.0260   -1.1180    1.0700 c3        1 MOL     -0.128728
     71 C24        -0.2520   -2.4820    0.4440 c         1 MOL      0.603047
     72 O13         0.6090   -3.1650   -0.0790 o         1 MOL     -0.561444
     73 H30         1.6370    0.0570    0.3790 hn        1 MOL      0.179697
     74 H31        -0.5530   -0.4800    0.3910 h1        1 MOL      0.087257
     75 H32        -0.3910   -0.9610    2.0670 h1        1 MOL      0.087257
     76 N7         -1.5220   -2.8290    0.4730 n         1 MOL     -0.505628
     77 C25        -2.0060   -4.1040    0.0140 c3        1 MOL      0.177418
     78 C26        -2.7980   -4.1080   -1.2860 c         1 MOL      0.294202
     79 O14        -2.9220   -5.0970   -1.9830 o         1 MOL     -0.504791
     80 C27        -2.6490   -4.9350    1.1070 c3        1 MOL      0.159369
     81 C28        -3.8910   -4.2850    1.7390 c3        1 MOL     -0.533038
     82 C29        -5.1200   -4.0420    0.7680 c         1 MOL      0.591204
     83 N8         -5.8720   -5.0140    0.5180 n         1 MOL     -0.618372
     84 O15        -5.2580   -2.9270    0.3350 o         1 MOL     -0.500815
     85 H33        -2.1380   -2.1330    0.8640 hn        1 MOL      0.268947
     86 H34        -1.2030   -4.7890   -0.2660 h1        1 MOL      0.103919
     87 H35        -1.8880   -5.2290    1.8350 hc        1 MOL     -0.001032
     88 H36        -2.9190   -5.8770    0.6140 hc        1 MOL     -0.001032
     89 H37        -3.6090   -3.2760    2.0650 hc        1 MOL      0.146026
     90 H38        -4.3220   -4.8340    2.5740 hc        1 MOL      0.146026
     91 H39        -5.7800   -5.9170    0.9420 hn        1 MOL      0.327097
     92 H40        -6.7130   -4.8770   -0.0350 hn        1 MOL      0.327097
     93 N9         -3.2900   -2.9480   -1.7310 n         1 MOL     -0.177241
     94 C30        -3.6830   -2.5820   -3.0820 c3        1 MOL     -0.244913
     95 C31        -5.0410   -1.9350   -3.2630 c         1 MOL      0.412881
     96 O16        -5.4210   -1.6480   -4.4250 o         1 MOL     -0.529489
     97 C32        -2.6250   -1.8860   -3.9500 c3        1 MOL      0.202103
     98 C33        -1.2500   -2.6080   -4.0510 c3        1 MOL     -0.225526
     99 C34        -2.5830   -0.4480   -3.3550 c3        1 MOL     -0.225526
    100 H41        -3.2310   -2.2130   -1.0410 hn        1 MOL      0.189145
    101 H42        -3.7370   -3.5220   -3.6300 h1        1 MOL      0.149025
    102 H43        -2.8620   -1.8160   -5.0200 hc        1 MOL      0.020988
    103 H44        -0.6090   -2.0350   -4.7160 hc        1 MOL      0.062255
    104 H45        -0.7690   -2.6630   -3.0710 hc        1 MOL      0.062255
    105 H46        -1.3210   -3.6130   -4.4530 hc        1 MOL      0.062255
    106 H47        -2.3370   -0.4270   -2.2900 hc        1 MOL      0.062255
    107 H48        -1.6560   -0.0440   -3.7790 hc        1 MOL      0.062255
    108 H49        -3.4870    0.1010   -3.5990 hc        1 MOL      0.062255
    109 N10        -5.7910   -1.7440   -2.1630 n         1 MOL     -0.255475
    110 C35        -7.1350   -1.1680   -2.1310 c3        1 MOL      0.037711
    111 C36        -7.1990    0.2740   -1.7060 c         1 MOL      0.501316
    112 O17        -8.2250    0.8660   -1.9430 o         1 MOL     -0.536196
    113 C37        -8.0460   -1.9450   -1.1200 c3        1 MOL     -0.075915
    114 C38        -8.3360   -3.4160   -1.4950 c         1 MOL      0.602582
    115 N11        -8.7670   -3.6100   -2.6870 n         1 MOL     -0.683740
    116 O18        -8.2170   -4.3560   -0.6900 o         1 MOL     -0.586519
    117 H50        -5.4520   -2.0480   -1.2730 hn        1 MOL      0.287078
    118 H51        -7.7190   -1.3000   -3.0420 h1        1 MOL      0.034029
    119 H52        -9.0570   -1.5410   -1.0420 hc        1 MOL      0.001203
    120 H53        -7.6210   -1.8710   -0.1210 hc        1 MOL      0.001203
    121 H54        -8.9180   -2.7970   -3.2600 hn        1 MOL      0.350229
    122 H55        -9.1730   -4.5270   -2.8450 hn        1 MOL      0.350229
    123 N12        -6.2070    0.7890   -0.9470 n         1 MOL     -0.393882
    124 C39        -6.2200    2.1700   -0.4180 c3        1 MOL      0.118214
    125 C40        -4.9010    2.8270    0.0050 c         1 MOL      0.449072
    126 O19        -3.8470    2.2500    0.1970 o         1 MOL     -0.399816
    127 C41        -7.2210    2.1100    0.8500 c3        1 MOL     -0.080280
    128 C42        -7.0580    0.9560    1.8410 ca        1 MOL      0.208823
    129 C43        -7.9380   -0.1200    1.8270 ca        1 MOL     -0.346361
    130 C44        -5.9980    0.9450    2.7410 ca        1 MOL     -0.346361
    131 C45        -7.7850   -1.2020    2.6690 ca        1 MOL     -0.012324
    132 C46        -5.8090   -0.1980    3.5810 ca        1 MOL     -0.012324
    133 C47        -6.7780   -1.2160    3.5930 ca        1 MOL      0.088521
    134 O20        -6.5490   -2.3440    4.3070 oh        1 MOL     -0.410334
    135 H56        -5.4050    0.1990   -0.7600 hn        1 MOL      0.226629
    136 H57        -6.7020    2.8300   -1.1410 h1        1 MOL      0.043193
    137 H58        -8.2470    2.1070    0.4740 hc        1 MOL      0.035890
    138 H59        -7.0890    3.0590    1.3580 hc        1 MOL      0.035890
    139 H60        -8.7180   -0.1560    1.0750 ha        1 MOL      0.158343
    140 H61        -5.2620    1.7440    2.7300 ha        1 MOL      0.158343
    141 H62        -8.4760   -2.0360    2.6340 ha        1 MOL      0.118192
    142 H63        -5.0040   -0.2710    4.2940 ha        1 MOL      0.118192
    143 H64        -7.2300   -2.9990    4.1350 ho        1 MOL      0.294560
    144 N13        -4.9810    4.1330    0.2210 n         1 MOL     -0.571446
    145 C48        -3.9330    4.9800    0.7570 c3        1 MOL      0.193610
    146 C49        -2.6180    5.2100    0.0300 c         1 MOL      0.328249
    147 O21        -2.0270    6.2780    0.0770 o         1 MOL     -0.509382
    148 C50        -3.6410    4.6270    2.2670 c3        1 MOL     -0.071602
    149 C51        -4.8610    4.7390    3.1360 c3        1 MOL     -0.058000
    150 C52        -4.5890    4.1960    4.5150 c         1 MOL      0.643185
    151 O22        -3.9330    4.9390    5.2950 o         1 MOL     -0.685788
    152 O23        -4.9860    3.1360    4.9670 o         1 MOL     -0.685788
    153 H65        -5.9170    4.5240    0.1900 hn        1 MOL      0.315004
    154 H66        -4.4190    5.9540    0.7740 h1        1 MOL      0.044258
    155 H67        -2.9420    5.3500    2.6910 hc        1 MOL      0.054847
    156 H68        -3.2680    3.6080    2.3590 hc        1 MOL      0.054847
    157 H69        -5.7630    4.2810    2.7300 hc        1 MOL     -0.024590
    158 H70        -5.1750    5.7820    3.1630 hc        1 MOL     -0.024590
    159 N14        -2.1010    4.2020   -0.7150 n         1 MOL     -0.084483
    160 C53        -0.8650    4.2210   -1.6490 c3        1 MOL     -0.174709
    161 C54        -1.2170    5.0900   -2.8200 c         1 MOL      0.580129
    162 O24        -0.3500    5.7380   -3.3910 o         1 MOL     -0.547695
    163 C55        -0.5610    2.8200   -2.1250 c3        1 MOL     -0.026245
    164 C56        -0.2160    1.7900   -1.0650 c3        1 MOL      0.506899
    165 C57         1.0630    2.2270   -0.2800 c         1 MOL      0.636795
    166 O25         0.9290    3.0320    0.6450 o         1 MOL     -0.720963
    167 O26         2.1080    1.6040   -0.4170 o         1 MOL     -0.720963
    168 H71        -2.6360    3.3580   -0.5750 hn        1 MOL      0.059467
    169 H72         0.0410    4.5980   -1.1820 h1        1 MOL      0.137172
    170 H73         0.2870    2.8100   -2.8140 hc        1 MOL     -0.024196
    171 H74        -1.3500    2.4860   -2.7950 hc        1 MOL     -0.024196
    172 H75        -0.0050    0.7850   -1.4190 hc        1 MOL     -0.165054
    173 H76        -1.0230    1.6520   -0.3500 hc        1 MOL     -0.165054
    174 N15        -2.5190    5.3210   -3.1960 n         1 MOL     -0.301896
    175 C58        -3.0860    6.1580   -4.3400 c3        1 MOL     -0.244673
    176 H77        -4.1600    5.9880   -4.4170 h1        1 MOL      0.110731
    177 H78        -2.8980    7.2140   -4.1470 h1        1 MOL      0.110731
    178 H79        -2.6060    5.8690   -5.2750 h1        1 MOL      0.110731
    179 H80        -3.1140    5.0300   -2.4240 hn        1 MOL      0.179755
    180 Ca1         4.1900    2.1480    1.1420 Ca        1 MOL      1.721273
    181 O27         4.8890    3.5510    3.3330 oh        1 MOL     -0.844665
    182 H81         4.5450    2.9690    4.0130 ho        1 MOL      0.408280
    183 H82         5.2030    4.3230    3.8050 ho        1 MOL      0.408280
    184 O28         3.0770    4.5740    0.5700 oh        1 MOL     -0.844665
    185 H83         2.9110    5.5100    0.4590 ho        1 MOL      0.408280
    186 H84         2.2150    4.1700    0.4890 ho        1 MOL      0.408280
    187 O29         2.4920    1.9170    3.0980 oh        1 MOL     -0.844665
    188 H85         1.5750    2.1600    2.9640 ho        1 MOL      0.408280
    189 H86         2.4570    1.2610    3.7970 ho        1 MOL      0.408280
    190 O30         5.8670    0.5910    2.6450 oh        1 MOL     -0.844665
    191 H87         6.6150    1.1580    2.5170 ho        1 MOL      0.408280
    192 H88         6.0830   -0.2200    2.1790 ho        1 MOL      0.408280
@<TRIPOS>BOND
     1    1    2 1   
     2    1    4 1   
     3    1    5 1   
     4    1    6 1   
     5    2    3 2   
     6    2    7 1   
     7    7    8 1   
     8    7   15 1   
     9    8    9 1   
    10    8   11 1   
    11    8   16 1   
    12    9   10 2   
    13    9   19 1   
    14   11   12 1   
    15   11   17 1   
    16   11   18 1   
    17   12   13 1   
    18   12   14 1   
    19   19   20 1   
    20   19   27 1   
    21   20   21 1   
    22   20   23 1   
    23   20   28 1   
    24   21   22 2   
    25   21   38 1   
    26   23   24 1   
    27   23   25 1   
    28   23   29 1   
    29   24   26 1   
    30   24   30 1   
    31   24   31 1   
    32   25   32 1   
    33   25   33 1   
    34   25   34 1   
    35   26   35 1   
    36   26   36 1   
    37   26   37 1   
    38   38   39 1   
    39   38   46 1   
    40   39   40 1   
    41   39   42 1   
    42   39   47 1   
    43   40   41 2   
    44   40   50 1   
    45   42   43 1   
    46   42   48 1   
    47   42   49 1   
    48   43   44 1   
    49   43   45 1   
    50   50   51 1   
    51   50   54 1   
    52   51   52 1   
    53   51   55 1   
    54   51   56 1   
    55   52   53 2   
    56   52   57 1   
    57   57   58 1   
    58   57   65 1   
    59   58   59 1   
    60   58   61 1   
    61   58   66 1   
    62   59   60 2   
    63   59   69 1   
    64   61   62 1   
    65   61   67 1   
    66   61   68 1   
    67   62   63 1   
    68   62   64 1   
    69   69   70 1   
    70   69   73 1   
    71   70   71 1   
    72   70   74 1   
    73   70   75 1   
    74   71   72 2   
    75   71   76 1   
    76   76   77 1   
    77   76   85 1   
    78   77   78 1   
    79   77   80 1   
    80   77   86 1   
    81   78   79 2   
    82   78   93 1   
    83   80   81 1   
    84   80   87 1   
    85   80   88 1   
    86   81   82 1   
    87   81   89 1   
    88   81   90 1   
    89   82   83 1   
    90   82   84 2   
    91   83   91 1   
    92   83   92 1   
    93   93   94 1   
    94   93  100 1   
    95   94   95 1   
    96   94   97 1   
    97   94  101 1   
    98   95   96 2   
    99   95  109 1   
   100   97   98 1   
   101   97   99 1   
   102   97  102 1   
   103   98  103 1   
   104   98  104 1   
   105   98  105 1   
   106   99  106 1   
   107   99  107 1   
   108   99  108 1   
   109  109  110 1   
   110  109  117 1   
   111  110  111 1   
   112  110  113 1   
   113  110  118 1   
   114  111  112 2   
   115  111  123 1   
   116  113  114 1   
   117  113  119 1   
   118  113  120 1   
   119  114  115 1   
   120  114  116 2   
   121  115  121 1   
   122  115  122 1   
   123  123  124 1   
   124  123  135 1   
   125  124  125 1   
   126  124  127 1   
   127  124  136 1   
   128  125  126 2   
   129  125  144 1   
   130  127  128 1   
   131  127  137 1   
   132  127  138 1   
   133  128  129 ar  
   134  128  130 ar  
   135  129  131 ar  
   136  129  139 1   
   137  130  132 ar  
   138  130  140 1   
   139  131  133 ar  
   140  131  141 1   
   141  132  133 ar  
   142  132  142 1   
   143  133  134 1   
   144  134  143 1   
   145  144  145 1   
   146  144  153 1   
   147  145  146 1   
   148  145  148 1   
   149  145  154 1   
   150  146  147 2   
   151  146  159 1   
   152  148  149 1   
   153  148  155 1   
   154  148  156 1   
   155  149  150 1   
   156  149  157 1   
   157  149  158 1   
   158  150  151 1   
   159  150  152 1   
   160  159  160 1   
   161  159  168 1   
   162  160  161 1   
   163  160  163 1   
   164  160  169 1   
   165  161  162 2   
   166  161  174 1   
   167  163  164 1   
   168  163  170 1   
   169  163  171 1   
   170  164  165 1   
   171  164  172 1   
   172  164  173 1   
   173  165  166 1   
   174  165  167 1   
   175  174  175 1   
   176  174  179 1   
   177  175  176 1   
   178  175  177 1   
   179  175  178 1   
   180  181  182 1   
   181  181  183 1   
   182  184  185 1   
   183  184  186 1   
   184  187  188 1   
   185  187  189 1   
   186  190  191 1   
   187  190  192 1   
@<TRIPOS>SUBSTRUCTURE
     1 MOL         1 TEMP              0 ****  ****    0 ROOT
