@<TRIPOS>MOLECULE
MOL
  198   191     1     0     0
SMALL
resp


@<TRIPOS>ATOM
      1 C1         -7.3710    8.9480    1.4870 c3        1 MOL     -0.379011
      2 C2         -6.8570    7.6080    0.9110 c         1 MOL      0.715222
      3 O1         -5.6980    7.5300    0.4500 o         1 MOL     -0.625186
      4 H1         -8.0490    8.7500    2.3170 hc        1 MOL      0.096321
      5 H2         -6.5270    9.5400    1.8410 hc        1 MOL      0.096321
      6 H3         -7.9010    9.4990    0.7100 hc        1 MOL      0.096321
      7 N1         -7.8040    6.6080    0.9410 n         1 MOL     -0.590433
      8 C3         -7.4400    5.1770    0.7900 c3        1 MOL      0.137515
      9 C4         -6.7230    4.8350   -0.5590 c         1 MOL      0.529427
     10 O2         -7.3160    5.1110   -1.5260 o         1 MOL     -0.486479
     11 C5         -8.7330    4.3620    1.0130 c3        1 MOL     -0.216360
     12 C6         -8.4500    2.9000    1.2620 c         1 MOL      0.741808
     13 O3         -9.3730    2.0630    1.1400 o         1 MOL     -0.692711
     14 O4         -7.3170    2.5610    1.6860 o         1 MOL     -0.692711
     15 H4         -8.7090    6.6450    1.3910 hn        1 MOL      0.324264
     16 H5         -6.7620    4.9250    1.5950 h1        1 MOL     -0.013092
     17 H6         -9.3540    4.4430    0.1170 hc        1 MOL      0.056747
     18 H7         -9.3440    4.7120    1.8510 hc        1 MOL      0.056747
     19 N2         -5.5100    4.2570   -0.4860 n         1 MOL     -0.338006
     20 C7         -4.7730    4.1020   -1.7680 c3        1 MOL      0.020414
     21 C8         -5.1410    3.0740   -2.7620 c         1 MOL      0.418722
     22 O5         -4.8590    3.3230   -3.9420 o         1 MOL     -0.564299
     23 C9         -3.2740    4.0560   -1.3750 c3        1 MOL     -0.191552
     24 C10        -2.7440    5.3130   -0.6390 c3        1 MOL      0.102421
     25 C11        -1.2210    5.3790   -0.4310 c3        1 MOL     -0.010136
     26 C12        -0.7790    6.7110    0.2710 c3        1 MOL     -0.019982
     27 N3         -1.1930    7.9020   -0.5290 n4        1 MOL     -0.386221
     28 H8         -5.1220    4.0240    0.4120 hn        1 MOL      0.275361
     29 H9         -4.8750    5.0590   -2.2750 h1        1 MOL      0.088770
     30 H10        -2.7020    3.9730   -2.3030 hc        1 MOL      0.078477
     31 H11        -3.1480    3.1890   -0.7340 hc        1 MOL      0.078477
     32 H12        -3.3050    5.2990    0.2890 hc        1 MOL     -0.002936
     33 H13        -3.0090    6.2140   -1.1970 hc        1 MOL     -0.002936
     34 H14        -0.7340    5.0800   -1.3650 hc        1 MOL      0.022951
     35 H15        -0.9260    4.6790    0.3420 hc        1 MOL      0.022951
     36 H16         0.3010    6.6920    0.3570 hx        1 MOL      0.098602
     37 H17        -1.2060    6.7440    1.2810 hx        1 MOL      0.098602
     38 H18        -0.9400    8.7340   -0.0230 hn        1 MOL      0.339945
     39 H19        -0.6660    7.8900   -1.3880 hn        1 MOL      0.339945
     40 H20        -2.1810    8.0570   -0.6980 hn        1 MOL      0.339945
     41 N4         -5.7710    1.9500   -2.4800 n         1 MOL     -0.214054
     42 C13        -6.0210    1.1420   -1.2590 c3        1 MOL     -0.027270
     43 C14        -7.1240    0.0950   -1.4730 c         1 MOL      0.473006
     44 O6         -7.4480   -0.3010   -2.6050 o         1 MOL     -0.576980
     45 C15        -4.5830    0.4830   -0.9490 c3        1 MOL     -0.253227
     46 C16        -4.6380   -0.5710    0.0680 c         1 MOL      0.502253
     47 O7         -5.0820   -0.2650    1.2310 o         1 MOL     -0.599057
     48 O8         -4.2960   -1.7180   -0.1770 o         1 MOL     -0.599057
     49 H21        -6.3000    1.5260   -3.2300 hn        1 MOL      0.245003
     50 H22        -6.3010    1.8460   -0.4780 h1        1 MOL      0.013589
     51 H23        -3.9050    1.2790   -0.6560 hc        1 MOL      0.057813
     52 H24        -4.2540    0.1510   -1.9360 hc        1 MOL      0.057813
     53 N5         -7.6290   -0.3030   -0.2900 n         1 MOL     -0.081054
     54 C17        -8.6180   -1.2860    0.0030 c3        1 MOL     -0.331740
     55 C18        -8.1710   -2.5430    0.7170 c         1 MOL      0.486921
     56 O9         -9.0410   -3.2150    1.2950 o         1 MOL     -0.535661
     57 H25        -7.3510    0.2410    0.5170 hn        1 MOL      0.278911
     58 H26        -9.1160   -1.3960   -0.9550 h1        1 MOL      0.152424
     59 H27        -9.2920   -0.7080    0.6290 h1        1 MOL      0.152424
     60 N6         -6.8790   -2.8210    0.8340 n         1 MOL      0.077396
     61 C19        -6.2320   -4.1090    1.3930 c3        1 MOL     -0.131391
     62 C20        -6.7220   -4.5610    2.8240 c         1 MOL      0.363724
     63 O10        -7.5330   -5.4770    2.9310 o         1 MOL     -0.484070
     64 C21        -6.3210   -5.3780    0.4950 c3        1 MOL      0.348748
     65 C22        -6.2230   -5.1470   -0.9800 c         1 MOL      0.340077
     66 O11        -6.8300   -5.9600   -1.7470 o         1 MOL     -0.650009
     67 O12        -5.3840   -4.3230   -1.4130 o         1 MOL     -0.650009
     68 H28        -6.2590   -2.1210    0.4470 hn        1 MOL     -0.026331
     69 H29        -5.1750   -3.8880    1.4320 h1        1 MOL      0.102611
     70 H30        -7.2280   -5.9490    0.6840 hc        1 MOL     -0.060845
     71 H31        -5.5390   -6.0820    0.7670 hc        1 MOL     -0.060845
     72 N7         -6.2410   -3.8590    3.8740 n         1 MOL     -0.357804
     73 C23        -5.2790   -2.6520    3.7900 c3        1 MOL     -0.060540
     74 C24        -3.8180   -3.0610    3.6580 c         1 MOL      0.520652
     75 O13        -3.2790   -3.7000    4.5840 o         1 MOL     -0.548371
     76 H32        -6.4580   -4.2300    4.7880 hn        1 MOL      0.275838
     77 H33        -5.3320   -2.0430    4.6920 h1        1 MOL      0.087416
     78 H34        -5.6380   -2.0320    2.9680 h1        1 MOL      0.087416
     79 N8         -3.1050   -2.5830    2.5960 n         1 MOL     -0.322485
     80 C25        -1.8070   -3.0510    2.2700 c3        1 MOL     -0.037028
     81 C26        -1.1630   -2.1650    1.2380 c         1 MOL      0.591755
     82 O14        -1.5810   -2.1790    0.1060 o         1 MOL     -0.459310
     83 C27        -1.8490   -4.5150    1.7540 c3        1 MOL      0.074201
     84 C28        -0.5040   -4.9770    1.1400 c3        1 MOL     -0.262917
     85 O15        -2.8130   -4.6480    0.7480 oh        1 MOL     -0.551399
     86 H35        -3.4960   -2.0030    1.8700 hn        1 MOL      0.202172
     87 H36        -1.1620   -3.0090    3.1500 h1        1 MOL      0.065424
     88 H37        -2.1140   -5.2280    2.5350 h1        1 MOL      0.120026
     89 H38        -2.7980   -5.5660    0.4610 ho        1 MOL      0.411282
     90 H39        -0.5230   -6.0620    1.0810 hc        1 MOL      0.051938
     91 H40        -0.3400   -4.6090    0.1330 hc        1 MOL      0.051938
     92 H41         0.3750   -4.6200    1.6830 hc        1 MOL      0.051938
     93 N9         -0.1510   -1.3470    1.6160 n         1 MOL     -0.551047
     94 C29         0.7920   -0.5100    0.6850 c3        1 MOL     -0.100647
     95 C30         1.7130   -1.3400   -0.2060 c         1 MOL      0.641662
     96 O16         1.3420   -2.2910   -0.8500 o         1 MOL     -0.474227
     97 C31        -0.1010    0.5350   -0.0950 c3        1 MOL      0.114127
     98 C32        -1.0800    1.2580    0.8320 c3        1 MOL      0.132852
     99 C33         0.6830    1.5400   -1.0030 c3        1 MOL     -0.105696
    100 C34        -0.4660    2.0180    2.0900 c3        1 MOL     -0.621608
    101 H42         0.1940   -1.3350    2.5690 hn        1 MOL      0.328872
    102 H43         1.3580    0.1160    1.3760 h1        1 MOL      0.112062
    103 H44        -0.7240   -0.0600   -0.7560 hc        1 MOL     -0.032431
    104 H45        -1.8180    0.5350    1.1890 hc        1 MOL      0.056297
    105 H46        -1.5590    1.9640    0.1580 hc        1 MOL      0.056297
    106 H47        -0.0660    2.1240   -1.5370 hc        1 MOL      0.018013
    107 H48         1.2410    2.2430   -0.3870 hc        1 MOL      0.018013
    108 H49         1.4680    1.1060   -1.6220 hc        1 MOL      0.018013
    109 H50        -1.0260    1.7210    2.9730 hc        1 MOL      0.158666
    110 H51         0.5200    1.8380    2.5110 hc        1 MOL      0.158666
    111 H52        -0.8630    3.0320    2.1310 hc        1 MOL      0.158666
    112 N10         3.0070   -0.9800   -0.0890 n         1 MOL     -0.458263
    113 C35         4.0100   -1.7080   -0.7480 c3        1 MOL     -0.017515
    114 C36         5.2470   -1.7490    0.1550 c         1 MOL      0.630322
    115 O17         5.2500   -1.2010    1.2430 o         1 MOL     -0.510941
    116 C37         4.3450   -1.0570   -2.0990 c3        1 MOL      0.305175
    117 C38         4.6810    0.3940   -2.0570 c3        1 MOL     -0.472549
    118 O18         3.3210   -1.0540   -3.0630 oh        1 MOL     -0.667822
    119 H53         3.3450   -0.4770    0.7150 hn        1 MOL      0.252348
    120 H54         3.6300   -2.7300   -0.8200 h1        1 MOL      0.068748
    121 H55         5.1530   -1.5900   -2.5890 h1        1 MOL      0.023915
    122 H56         3.5950   -0.5210   -3.8130 ho        1 MOL      0.433099
    123 H57         5.4500    0.5230   -1.2840 hc        1 MOL      0.145427
    124 H58         5.1610    0.7310   -2.9690 hc        1 MOL      0.145427
    125 H59         3.8000    1.0120   -1.8630 hc        1 MOL      0.145427
    126 N11         6.2880   -2.5010   -0.3100 n         1 MOL     -0.402356
    127 C39         7.6220   -2.6740    0.2620 c3        1 MOL     -0.375827
    128 C40         8.6380   -1.5830   -0.1070 c         1 MOL      0.693690
    129 O19         8.5310   -0.9620   -1.1850 o         1 MOL     -0.508054
    130 C41         8.3120   -3.9680   -0.1590 c3        1 MOL      0.396245
    131 C42         7.6750   -5.1850    0.5220 c3        1 MOL     -0.327671
    132 O20         8.2260   -4.1100   -1.5670 oh        1 MOL     -0.592562
    133 H60         6.0870   -3.0700   -1.1250 hn        1 MOL      0.247643
    134 H61         7.4430   -2.6940    1.3330 h1        1 MOL      0.154152
    135 H62         9.3760   -3.9080    0.0400 h1        1 MOL      0.040581
    136 H63         7.3690   -4.5040   -1.7450 ho        1 MOL      0.393903
    137 H64         7.9960   -5.1520    1.5630 hc        1 MOL      0.090084
    138 H65         6.5910   -5.0570    0.4390 hc        1 MOL      0.090084
    139 H66         8.0450   -6.0970    0.0690 hc        1 MOL      0.090084
    140 N12         9.5540   -1.2380    0.7760 n         1 MOL     -0.423966
    141 C43        10.6420   -0.1900    0.5340 c3        1 MOL      0.103754
    142 C44        10.1330    1.1790    0.2350 c         1 MOL      0.632960
    143 O21        10.4920    1.8300   -0.7360 o         1 MOL     -0.489079
    144 C45        11.7990   -0.7410   -0.3170 c3        1 MOL     -0.359284
    145 C46        12.6870   -1.7660    0.4170 c3        1 MOL      0.213699
    146 C47        14.0290   -1.8940   -0.2920 c3        1 MOL     -0.273527
    147 C48        14.8720   -0.7270    0.1000 c3        1 MOL      0.084280
    148 N13        16.1900   -0.7440   -0.5710 n4        1 MOL     -0.065071
    149 H67         9.5670   -1.7680    1.6300 hn        1 MOL      0.232307
    150 H68        11.0490   -0.0840    1.5320 h1        1 MOL      0.059730
    151 H69        12.4800    0.0590   -0.6240 hc        1 MOL      0.133431
    152 H70        11.3750   -1.1350   -1.2290 hc        1 MOL      0.133431
    153 H71        12.1970   -2.7470    0.4730 hc        1 MOL     -0.016017
    154 H72        12.7340   -1.5580    1.4870 hc        1 MOL     -0.016017
    155 H73        13.9540   -1.9310   -1.3830 hc        1 MOL      0.093251
    156 H74        14.4960   -2.8420   -0.0270 hc        1 MOL      0.093251
    157 H75        15.0670   -0.7240    1.1740 hx        1 MOL      0.056885
    158 H76        14.3840    0.2240   -0.1070 hx        1 MOL      0.056885
    159 H77        16.2490   -1.1010   -1.5070 hn        1 MOL      0.189330
    160 H78        16.6960    0.1250   -0.4470 hn        1 MOL      0.189330
    161 H79        16.8500   -1.3510   -0.1030 hn        1 MOL      0.189330
    162 N14         9.2420    1.6450    1.1530 n         1 MOL     -0.810619
    163 C49         8.5030    2.8570    1.0410 c3        1 MOL      0.623298
    164 C50         6.9660    2.7310    1.1810 c         1 MOL      0.273005
    165 O22         6.3110    3.1980    0.2580 o         1 MOL     -0.514659
    166 C51         9.2010    4.0010    1.8100 c3        1 MOL     -0.298621
    167 C52         8.8690    5.3400    1.1410 c3        1 MOL     -0.093628
    168 C53         9.4760    5.4020   -0.2630 c         1 MOL      0.692438
    169 O23         8.6850    5.2770   -1.2290 o         1 MOL     -0.656794
    170 O24        10.6650    5.8110   -0.3540 o         1 MOL     -0.656794
    171 H80         8.9390    1.0080    1.8730 hn        1 MOL      0.284745
    172 H81         8.6770    3.1340   -0.0070 h1        1 MOL      0.020343
    173 H82        10.2780    3.8060    1.7880 hc        1 MOL      0.065370
    174 H83         8.7990    4.0160    2.8210 hc        1 MOL      0.065370
    175 H84         9.2650    6.1320    1.7790 hc        1 MOL      0.017643
    176 H85         7.7840    5.4330    1.0870 hc        1 MOL      0.017643
    177 N15         6.3420    2.2650    2.2590 n         1 MOL     -0.286985
    178 C54         6.9430    2.0100    3.5520 c3        1 MOL      0.021333
    179 H86         7.7920    2.6790    3.6950 h1        1 MOL      0.026039
    180 H87         6.2070    2.1860    4.3370 h1        1 MOL      0.026039
    181 H88         7.2850    0.9760    3.5980 h1        1 MOL      0.026039
    182 H89         5.3450    2.1360    2.1440 hn        1 MOL      0.257797
    183 Ca1        -3.1590   -3.2390   -1.8360 Ca        1 MOL      1.607264
    184 O25        -5.4630   -1.8680   -3.3890 oh        1 MOL     -0.800695
    185 H90        -6.2100   -1.3460   -3.1190 ho        1 MOL      0.405149
    186 H91        -5.8190   -2.7260   -3.5900 ho        1 MOL      0.405149
    187 O26        -2.6220   -5.7830   -2.0140 oh        1 MOL     -0.800695
    188 H92        -2.8320   -6.3830   -1.3090 ho        1 MOL      0.405149
    189 H93        -2.4360   -6.3420   -2.7660 ho        1 MOL      0.405149
    190 O27        -0.5020   -3.5110   -2.1220 oh        1 MOL     -0.800695
    191 H94        -0.0260   -3.0790   -1.4170 ho        1 MOL      0.405149
    192 H95         0.0950   -4.1920   -2.4340 ho        1 MOL      0.405149
    193 O28        -2.1430   -1.3670   -3.4120 oh        1 MOL     -0.800695
    194 H96        -1.2290   -1.1390   -3.2350 ho        1 MOL      0.405149
    195 H97        -2.4500   -0.6980   -4.0220 ho        1 MOL      0.405149
    196 O29        -3.1670   -4.0720   -4.4470 oh        1 MOL     -0.800695
    197 H98        -3.8390   -3.9810   -5.1140 ho        1 MOL      0.405149
    198 H99        -2.6040   -4.7830   -4.7570 ho        1 MOL      0.405149
@<TRIPOS>BOND
     1    1    2 1   
     2    1    4 1   
     3    1    5 1   
     4    1    6 1   
     5    2    3 2   
     6    2    7 1   
     7    7    8 1   
     8    7   15 1   
     9    8    9 1   
    10    8   11 1   
    11    8   16 1   
    12    9   10 2   
    13    9   19 1   
    14   11   12 1   
    15   11   17 1   
    16   11   18 1   
    17   12   13 1   
    18   12   14 1   
    19   19   20 1   
    20   19   28 1   
    21   20   21 1   
    22   20   23 1   
    23   20   29 1   
    24   21   22 2   
    25   21   41 1   
    26   23   24 1   
    27   23   30 1   
    28   23   31 1   
    29   24   25 1   
    30   24   32 1   
    31   24   33 1   
    32   25   26 1   
    33   25   34 1   
    34   25   35 1   
    35   26   27 1   
    36   26   36 1   
    37   26   37 1   
    38   27   38 1   
    39   27   39 1   
    40   27   40 1   
    41   41   42 1   
    42   41   49 1   
    43   42   43 1   
    44   42   45 1   
    45   42   50 1   
    46   43   44 2   
    47   43   53 1   
    48   45   46 1   
    49   45   51 1   
    50   45   52 1   
    51   46   47 1   
    52   46   48 1   
    53   53   54 1   
    54   53   57 1   
    55   54   55 1   
    56   54   58 1   
    57   54   59 1   
    58   55   56 2   
    59   55   60 1   
    60   60   61 1   
    61   60   68 1   
    62   61   62 1   
    63   61   64 1   
    64   61   69 1   
    65   62   63 2   
    66   62   72 1   
    67   64   65 1   
    68   64   70 1   
    69   64   71 1   
    70   65   66 1   
    71   65   67 1   
    72   72   73 1   
    73   72   76 1   
    74   73   74 1   
    75   73   77 1   
    76   73   78 1   
    77   74   75 2   
    78   74   79 1   
    79   79   80 1   
    80   79   86 1   
    81   80   81 1   
    82   80   83 1   
    83   80   87 1   
    84   81   82 2   
    85   81   93 1   
    86   83   84 1   
    87   83   85 1   
    88   83   88 1   
    89   84   90 1   
    90   84   91 1   
    91   84   92 1   
    92   85   89 1   
    93   93   94 1   
    94   93  101 1   
    95   94   95 1   
    96   94   97 1   
    97   94  102 1   
    98   95   96 2   
    99   95  112 1   
   100   97   98 1   
   101   97   99 1   
   102   97  103 1   
   103   98  100 1   
   104   98  104 1   
   105   98  105 1   
   106   99  106 1   
   107   99  107 1   
   108   99  108 1   
   109  100  109 1   
   110  100  110 1   
   111  100  111 1   
   112  112  113 1   
   113  112  119 1   
   114  113  114 1   
   115  113  116 1   
   116  113  120 1   
   117  114  115 2   
   118  114  126 1   
   119  116  117 1   
   120  116  118 1   
   121  116  121 1   
   122  117  123 1   
   123  117  124 1   
   124  117  125 1   
   125  118  122 1   
   126  126  127 1   
   127  126  133 1   
   128  127  128 1   
   129  127  130 1   
   130  127  134 1   
   131  128  129 2   
   132  128  140 1   
   133  130  131 1   
   134  130  132 1   
   135  130  135 1   
   136  131  137 1   
   137  131  138 1   
   138  131  139 1   
   139  132  136 1   
   140  140  141 1   
   141  140  149 1   
   142  141  142 1   
   143  141  144 1   
   144  141  150 1   
   145  142  143 2   
   146  142  162 1   
   147  144  145 1   
   148  144  151 1   
   149  144  152 1   
   150  145  146 1   
   151  145  153 1   
   152  145  154 1   
   153  146  147 1   
   154  146  155 1   
   155  146  156 1   
   156  147  148 1   
   157  147  157 1   
   158  147  158 1   
   159  148  159 1   
   160  148  160 1   
   161  148  161 1   
   162  162  163 1   
   163  162  171 1   
   164  163  164 1   
   165  163  166 1   
   166  163  172 1   
   167  164  165 2   
   168  164  177 1   
   169  166  167 1   
   170  166  173 1   
   171  166  174 1   
   172  167  168 1   
   173  167  175 1   
   174  167  176 1   
   175  168  169 1   
   176  168  170 1   
   177  177  178 1   
   178  177  182 1   
   179  178  179 1   
   180  178  180 1   
   181  178  181 1   
   182  184  185 1   
   183  184  186 1   
   184  187  188 1   
   185  187  189 1   
   186  190  191 1   
   187  190  192 1   
   188  193  194 1   
   189  193  195 1   
   190  196  197 1   
   191  196  198 1   
@<TRIPOS>SUBSTRUCTURE
     1 MOL         1 TEMP              0 ****  ****    0 ROOT
