@<TRIPOS>MOLECULE
MOL
  189   185     1     0     0
SMALL
resp


@<TRIPOS>ATOM
      1 C1          3.9440    3.1510   -4.7940 c3        1 MOL     -0.306347
      2 C2          4.6170    2.7580   -3.4120 c         1 MOL      0.812407
      3 O1          3.9490    2.6120   -2.3580 o         1 MOL     -0.659051
      4 H1          3.7480    2.2480   -5.3710 hc        1 MOL      0.070093
      5 H2          3.0060    3.6730   -4.6060 hc        1 MOL      0.070093
      6 H3          4.6160    3.8000   -5.3540 hc        1 MOL      0.070093
      7 N1          5.9220    2.7270   -3.5620 n         1 MOL     -0.668779
      8 C3          6.8610    2.1210   -2.6440 c3        1 MOL      0.296700
      9 C4          6.3140    0.8360   -1.9820 c         1 MOL      0.222916
     10 O2          5.6580    0.8220   -0.9390 o         1 MOL     -0.501326
     11 C5          7.5740    3.1810   -1.7120 c3        1 MOL     -0.338157
     12 C6          6.6040    4.1250   -1.0300 c         1 MOL      0.785365
     13 O3          5.8700    3.7090   -0.0710 o         1 MOL     -0.724262
     14 O4          6.4810    5.3110   -1.3300 o         1 MOL     -0.724262
     15 H4          6.3520    2.9530   -4.4520 hn        1 MOL      0.349084
     16 H5          7.6480    1.7810   -3.3260 h1        1 MOL     -0.010178
     17 H6          8.3530    3.7660   -2.1810 hc        1 MOL      0.083388
     18 H7          8.0580    2.6600   -0.8890 hc        1 MOL      0.083388
     19 N2          6.4570   -0.2950   -2.7600 n         1 MOL     -0.298537
     20 C7          5.9080   -1.6230   -2.5810 c3        1 MOL     -0.184885
     21 C8          6.6430   -2.4280   -1.4780 c         1 MOL      0.463799
     22 O5          7.0500   -3.5800   -1.7230 o         1 MOL     -0.533874
     23 C9          4.3820   -1.6040   -2.5150 c3        1 MOL      0.032188
     24 C10         3.8620   -3.0680   -2.5180 c3        1 MOL     -0.094784
     25 C11         3.7140   -0.7860   -3.6630 c3        1 MOL      0.111074
     26 C12         2.3730   -3.2220   -2.2000 c3        1 MOL     -0.217008
     27 H8          6.9310   -0.0600   -3.6170 hn        1 MOL      0.257605
     28 H9          6.2680   -2.0500   -3.5180 h1        1 MOL      0.106422
     29 H10         4.0980   -1.1210   -1.5850 hc        1 MOL      0.106176
     30 H11         4.3890   -3.6730   -1.7800 hc        1 MOL      0.018127
     31 H12         4.0860   -3.5060   -3.4860 hc        1 MOL      0.018127
     32 H13         3.5560   -1.3940   -4.5480 hc        1 MOL     -0.034243
     33 H14         2.7690   -0.2890   -3.4020 hc        1 MOL     -0.034243
     34 H15         4.3400   -0.0210   -4.1270 hc        1 MOL     -0.034243
     35 H16         1.8040   -2.5840   -2.8800 hc        1 MOL      0.080711
     36 H17         2.1930   -4.2870   -2.3330 hc        1 MOL      0.080711
     37 H18         2.2230   -2.9210   -1.1560 hc        1 MOL      0.080711
     38 N3          6.7310   -1.9000   -0.2090 n         1 MOL     -0.204015
     39 C13         7.5620   -2.5400    0.7760 c3        1 MOL     -0.158881
     40 C14         7.2250   -4.0300    1.1170 c         1 MOL      0.698754
     41 O6          8.1260   -4.8570    1.1580 o         1 MOL     -0.595991
     42 C15         7.8060   -1.7740    2.0650 c3        1 MOL     -0.350904
     43 C16         8.3340   -0.2880    1.8170 c         1 MOL      0.822629
     44 O7          7.6220    0.6050    2.3010 o         1 MOL     -0.721224
     45 O8          9.4330   -0.1230    1.2290 o         1 MOL     -0.721224
     46 H19         6.3420   -0.9820   -0.0610 hn        1 MOL      0.355129
     47 H20         8.5280   -2.7020    0.2890 h1        1 MOL      0.099005
     48 H21         8.5090   -2.2660    2.7330 hc        1 MOL      0.074473
     49 H22         6.9530   -1.6750    2.7370 hc        1 MOL      0.074473
     50 N4          5.9470   -4.4870    1.3240 n         1 MOL     -0.617153
     51 C17         4.8050   -3.5530    1.4920 c3        1 MOL      0.178503
     52 C18         3.5810   -4.1520    2.2770 c         1 MOL      0.403775
     53 O9          3.4120   -5.3580    2.1980 o         1 MOL     -0.567328
     54 H23         5.7210   -5.4470    1.5340 hn        1 MOL      0.314168
     55 H24         4.3090   -3.4240    0.5320 h1        1 MOL      0.082859
     56 H25         5.1200   -2.5790    1.8580 h1        1 MOL      0.082859
     57 N5          2.7560   -3.3850    2.9650 n         1 MOL     -0.336959
     58 C19         2.7060   -1.8930    3.0970 c3        1 MOL      0.075078
     59 C20         2.6130   -1.0850    1.7500 c         1 MOL      0.158051
     60 O10         3.5250   -0.5700    1.1600 o         1 MOL     -0.466088
     61 C21         3.8950   -1.3760    3.9830 c3        1 MOL     -0.108786
     62 C22         3.7390   -0.0340    4.7270 c         1 MOL      0.662430
     63 O11         4.7890    0.4980    5.2130 o         1 MOL     -0.680547
     64 O12         2.5730    0.3870    4.8720 o         1 MOL     -0.680547
     65 H26         2.0540   -3.9230    3.4620 hn        1 MOL      0.254845
     66 H27         1.7920   -1.6790    3.6560 h1        1 MOL      0.040667
     67 H28         4.6930   -1.3550    3.2470 hc        1 MOL      0.017607
     68 H29         4.1070   -2.1310    4.7470 hc        1 MOL      0.017607
     69 N6          1.4090   -0.9400    1.1740 n         1 MOL     -0.057577
     70 C23         0.1060   -1.3900    1.6250 c3        1 MOL     -0.187162
     71 C24        -0.4550   -2.5740    0.9240 c         1 MOL      0.658860
     72 O13         0.1070   -3.1860    0.0730 o         1 MOL     -0.490584
     73 H30         1.4500   -0.4640    0.2860 hn        1 MOL      0.127586
     74 H31        -0.6350   -0.6160    1.4220 h1        1 MOL      0.076506
     75 H32         0.1050   -1.5520    2.7040 h1        1 MOL      0.076506
     76 N7         -1.6760   -2.9930    1.3560 n         1 MOL     -0.563535
     77 C25        -2.2250   -4.3040    1.1060 c3        1 MOL      0.010614
     78 C26        -2.8890   -4.5250   -0.2810 c         1 MOL      0.469679
     79 O14        -3.0370   -5.6950   -0.5970 o         1 MOL     -0.534541
     80 C27        -3.0280   -4.7930    2.3730 c3        1 MOL      0.020149
     81 C28        -4.1920   -3.8840    2.7520 c3        1 MOL     -0.241681
     82 C29        -5.3970   -4.0520    1.8630 c         1 MOL      0.473982
     83 N8         -5.9450   -5.2300    1.6980 n         1 MOL     -0.676371
     84 O15        -5.7980   -3.1520    1.0880 o         1 MOL     -0.494433
     85 H33        -2.0830   -2.4780    2.1330 hn        1 MOL      0.283105
     86 H34        -1.4010   -5.0060    1.0640 h1        1 MOL      0.099748
     87 H35        -2.4330   -4.8850    3.2760 hc        1 MOL      0.032222
     88 H36        -3.2790   -5.8260    2.1010 hc        1 MOL      0.032222
     89 H37        -4.0730   -2.8150    2.8810 hc        1 MOL      0.102286
     90 H38        -4.3950   -4.2800    3.7520 hc        1 MOL      0.102286
     91 H39        -5.5700   -6.0260    2.2100 hn        1 MOL      0.350275
     92 H40        -6.5750   -5.2980    0.9130 hn        1 MOL      0.350275
     93 N9         -3.3680   -3.4770   -0.9770 n         1 MOL     -0.106712
     94 C30        -3.7910   -3.5700   -2.4050 c3        1 MOL     -0.196989
     95 C31        -5.1730   -2.9030   -2.6490 c         1 MOL      0.625913
     96 O16        -5.6980   -3.1010   -3.7770 o         1 MOL     -0.583671
     97 C32        -2.8070   -3.0140   -3.4310 c3        1 MOL      0.148730
     98 C33        -1.4060   -3.6780   -3.4010 c3        1 MOL     -0.078672
     99 C34        -2.5600   -1.5800   -3.1920 c3        1 MOL     -0.078672
    100 H41        -3.2970   -2.5640   -0.5590 hn        1 MOL      0.149079
    101 H42        -3.9030   -4.6520   -2.5420 h1        1 MOL      0.118601
    102 H43        -3.2670   -3.1140   -4.4080 hc        1 MOL     -0.003602
    103 H44        -0.8940   -3.5290   -2.4580 hc        1 MOL      0.009083
    104 H45        -1.6000   -4.7130   -3.7010 hc        1 MOL      0.009083
    105 H46        -0.7590   -3.3690   -4.2200 hc        1 MOL      0.009083
    106 H47        -1.8080   -1.2340   -3.9090 hc        1 MOL      0.009083
    107 H48        -3.4130   -0.9070   -3.2110 hc        1 MOL      0.009083
    108 H49        -2.0460   -1.5240   -2.2400 hc        1 MOL      0.009083
    109 N10        -5.8790   -2.3690   -1.6490 n         1 MOL     -0.460994
    110 C35        -7.3170   -1.9380   -1.8210 c3        1 MOL      0.085690
    111 C36        -7.5120   -0.5220   -1.3390 c         1 MOL      0.552300
    112 O17        -8.5180    0.1460   -1.6640 o         1 MOL     -0.600318
    113 C37        -8.3400   -2.8550   -1.1300 c3        1 MOL     -0.253752
    114 C38        -8.2300   -4.3300   -1.4870 c         1 MOL      0.622725
    115 N11        -8.3090   -4.7030   -2.7330 n         1 MOL     -0.800790
    116 O18        -7.9000   -5.1060   -0.6360 o         1 MOL     -0.544457
    117 H50        -5.3630   -2.2990   -0.7860 hn        1 MOL      0.279859
    118 H51        -7.5610   -1.9130   -2.8870 h1        1 MOL      0.069440
    119 H52        -9.3550   -2.4800   -1.2550 hc        1 MOL      0.098548
    120 H53        -7.9950   -2.7400   -0.1000 hc        1 MOL      0.098548
    121 H54        -8.8420   -4.1420   -3.3820 hn        1 MOL      0.385824
    122 H55        -7.8200   -5.5640   -2.9440 hn        1 MOL      0.385824
    123 N12        -6.5990    0.1660   -0.6630 n         1 MOL     -0.375767
    124 C39        -6.7470    1.6170   -0.3560 c3        1 MOL      0.222417
    125 C40        -5.3970    2.3230   -0.1760 c         1 MOL      0.275047
    126 O19        -4.4220    1.5770   -0.1920 o         1 MOL     -0.394578
    127 C41        -7.6790    1.7950    0.8620 c3        1 MOL     -0.173965
    128 C42        -6.9640    1.8560    2.2200 ca        1 MOL      0.099814
    129 C43        -6.8610    3.0290    2.8890 ca        1 MOL     -0.228482
    130 C44        -6.3900    0.6900    2.8670 ca        1 MOL     -0.228482
    131 C45        -6.1290    3.2470    4.0570 ca        1 MOL     -0.206410
    132 C46        -5.6100    0.7860    4.0250 ca        1 MOL     -0.206410
    133 C47        -5.5390    2.1020    4.6420 ca        1 MOL      0.305932
    134 O20        -4.9270    2.2310    5.8970 oh        1 MOL     -0.519263
    135 H56        -5.7450   -0.2350   -0.2970 hn        1 MOL      0.178455
    136 H57        -7.0880    2.1240   -1.2570 h1        1 MOL      0.039490
    137 H58        -8.4310    1.0120    0.8930 hc        1 MOL      0.063424
    138 H59        -8.2680    2.7090    0.7310 hc        1 MOL      0.063424
    139 H60        -7.3830    3.8770    2.4740 ha        1 MOL      0.134243
    140 H61        -6.4040   -0.2730    2.3730 ha        1 MOL      0.134243
    141 H62        -6.0370    4.2310    4.5020 ha        1 MOL      0.148480
    142 H63        -5.1500   -0.0940    4.4580 ha        1 MOL      0.148480
    143 H64        -4.9510    3.1670    6.1400 ho        1 MOL      0.386753
    144 N13        -5.3220    3.6470   -0.1440 n         1 MOL     -0.296170
    145 C48        -4.2000    4.5700    0.1650 c3        1 MOL      0.037033
    146 C49        -3.0270    4.5860   -0.8610 c         1 MOL      0.345655
    147 O21        -2.4920    5.6530   -1.3250 o         1 MOL     -0.488863
    148 C50        -3.7630    4.3660    1.6230 c3        1 MOL      0.089485
    149 C51        -2.8250    5.3370    2.2690 c3        1 MOL     -0.191734
    150 C52        -3.5230    6.6230    2.7950 c         1 MOL      0.685420
    151 O22        -3.5400    7.5490    1.8870 o         1 MOL     -0.722371
    152 O23        -3.8590    6.8210    4.0030 o         1 MOL     -0.722371
    153 H65        -6.1820    4.0930   -0.4070 hn        1 MOL      0.258532
    154 H66        -4.5950    5.5820    0.1470 h1        1 MOL      0.056856
    155 H67        -3.2360    3.4130    1.6890 hc        1 MOL     -0.008395
    156 H68        -4.6870    4.3450    2.2050 hc        1 MOL     -0.008395
    157 H69        -2.0140    5.5510    1.5760 hc        1 MOL      0.035089
    158 H70        -2.3330    4.8020    3.0840 hc        1 MOL      0.035089
    159 N14        -2.6490    3.3420   -1.2950 n         1 MOL     -0.176947
    160 C53        -1.5170    3.0950   -2.2640 c3        1 MOL     -0.211346
    161 C54        -1.7600    3.5090   -3.7180 c         1 MOL      0.442408
    162 O24        -0.8520    3.4900   -4.5190 o         1 MOL     -0.507895
    163 C55        -1.0760    1.6240   -2.3480 c3        1 MOL     -0.068921
    164 C56        -0.3760    1.0100   -1.1850 c3        1 MOL      0.240481
    165 C57         1.0230    1.5020   -0.9110 c         1 MOL      0.681238
    166 O25         1.2370    2.6610   -0.4210 o         1 MOL     -0.704247
    167 O26         1.9490    0.6980   -1.1450 o         1 MOL     -0.704247
    168 H71        -3.1200    2.5520   -0.8750 hn        1 MOL      0.162810
    169 H72        -0.6490    3.6710   -1.9370 h1        1 MOL      0.199263
    170 H73        -0.3330    1.4440   -3.1280 hc        1 MOL      0.046180
    171 H74        -1.9800    1.1220   -2.7140 hc        1 MOL      0.046180
    172 H75        -0.3220   -0.0620   -1.3880 hc        1 MOL     -0.091174
    173 H76        -1.0480    1.1250   -0.3300 hc        1 MOL     -0.091174
    174 N15        -3.0400    3.9400   -4.0170 n         1 MOL     -0.128956
    175 C58        -3.5030    4.5270   -5.2130 c3        1 MOL     -0.284752
    176 H77        -3.9180    3.7540   -5.8590 h1        1 MOL      0.099662
    177 H78        -4.2750    5.2600   -4.9830 h1        1 MOL      0.099662
    178 H79        -2.6740    5.0190   -5.7210 h1        1 MOL      0.099662
    179 H80        -3.7430    3.8740   -3.3010 hn        1 MOL      0.167055
    180 Ca1         3.7150    2.0710    0.2160 Ca        1 MOL      1.798954
    181 O27         5.1680    1.5680    2.5470 oh        1 MOL     -0.851250
    182 H81         4.7870    1.6480    3.4170 ho        1 MOL      0.407087
    183 H82         5.8130    0.8680    2.6330 ho        1 MOL      0.407087
    184 O28         2.2150    2.0890    2.5960 oh        1 MOL     -0.851250
    185 H83         2.2520    1.7710    3.4970 ho        1 MOL      0.407087
    186 H84         1.3040    2.3780    2.4850 ho        1 MOL      0.407087
    187 O29         3.2490    4.8270    1.6070 oh        1 MOL     -0.851250
    188 H85         3.6470    5.6900    1.4900 ho        1 MOL      0.407087
    189 H86         2.8220    4.8640    2.4650 ho        1 MOL      0.407087
@<TRIPOS>BOND
     1    1    2 1   
     2    1    4 1   
     3    1    5 1   
     4    1    6 1   
     5    2    3 2   
     6    2    7 1   
     7    7    8 1   
     8    7   15 1   
     9    8    9 1   
    10    8   11 1   
    11    8   16 1   
    12    9   10 2   
    13    9   19 1   
    14   11   12 1   
    15   11   17 1   
    16   11   18 1   
    17   12   13 1   
    18   12   14 1   
    19   19   20 1   
    20   19   27 1   
    21   20   21 1   
    22   20   23 1   
    23   20   28 1   
    24   21   22 2   
    25   21   38 1   
    26   23   24 1   
    27   23   25 1   
    28   23   29 1   
    29   24   26 1   
    30   24   30 1   
    31   24   31 1   
    32   25   32 1   
    33   25   33 1   
    34   25   34 1   
    35   26   35 1   
    36   26   36 1   
    37   26   37 1   
    38   38   39 1   
    39   38   46 1   
    40   39   40 1   
    41   39   42 1   
    42   39   47 1   
    43   40   41 2   
    44   40   50 1   
    45   42   43 1   
    46   42   48 1   
    47   42   49 1   
    48   43   44 1   
    49   43   45 1   
    50   50   51 1   
    51   50   54 1   
    52   51   52 1   
    53   51   55 1   
    54   51   56 1   
    55   52   53 2   
    56   52   57 1   
    57   57   58 1   
    58   57   65 1   
    59   58   59 1   
    60   58   61 1   
    61   58   66 1   
    62   59   60 2   
    63   59   69 1   
    64   61   62 1   
    65   61   67 1   
    66   61   68 1   
    67   62   63 1   
    68   62   64 1   
    69   69   70 1   
    70   69   73 1   
    71   70   71 1   
    72   70   74 1   
    73   70   75 1   
    74   71   72 2   
    75   71   76 1   
    76   76   77 1   
    77   76   85 1   
    78   77   78 1   
    79   77   80 1   
    80   77   86 1   
    81   78   79 2   
    82   78   93 1   
    83   80   81 1   
    84   80   87 1   
    85   80   88 1   
    86   81   82 1   
    87   81   89 1   
    88   81   90 1   
    89   82   83 1   
    90   82   84 2   
    91   83   91 1   
    92   83   92 1   
    93   93   94 1   
    94   93  100 1   
    95   94   95 1   
    96   94   97 1   
    97   94  101 1   
    98   95   96 2   
    99   95  109 1   
   100   97   98 1   
   101   97   99 1   
   102   97  102 1   
   103   98  103 1   
   104   98  104 1   
   105   98  105 1   
   106   99  106 1   
   107   99  107 1   
   108   99  108 1   
   109  109  110 1   
   110  109  117 1   
   111  110  111 1   
   112  110  113 1   
   113  110  118 1   
   114  111  112 2   
   115  111  123 1   
   116  113  114 1   
   117  113  119 1   
   118  113  120 1   
   119  114  115 1   
   120  114  116 2   
   121  115  121 1   
   122  115  122 1   
   123  123  124 1   
   124  123  135 1   
   125  124  125 1   
   126  124  127 1   
   127  124  136 1   
   128  125  126 2   
   129  125  144 1   
   130  127  128 1   
   131  127  137 1   
   132  127  138 1   
   133  128  129 ar  
   134  128  130 ar  
   135  129  131 ar  
   136  129  139 1   
   137  130  132 ar  
   138  130  140 1   
   139  131  133 ar  
   140  131  141 1   
   141  132  133 ar  
   142  132  142 1   
   143  133  134 1   
   144  134  143 1   
   145  144  145 1   
   146  144  153 1   
   147  145  146 1   
   148  145  148 1   
   149  145  154 1   
   150  146  147 2   
   151  146  159 1   
   152  148  149 1   
   153  148  155 1   
   154  148  156 1   
   155  149  150 1   
   156  149  157 1   
   157  149  158 1   
   158  150  151 1   
   159  150  152 1   
   160  159  160 1   
   161  159  168 1   
   162  160  161 1   
   163  160  163 1   
   164  160  169 1   
   165  161  162 2   
   166  161  174 1   
   167  163  164 1   
   168  163  170 1   
   169  163  171 1   
   170  164  165 1   
   171  164  172 1   
   172  164  173 1   
   173  165  166 1   
   174  165  167 1   
   175  174  175 1   
   176  174  179 1   
   177  175  176 1   
   178  175  177 1   
   179  175  178 1   
   180  181  182 1   
   181  181  183 1   
   182  184  185 1   
   183  184  186 1   
   184  187  188 1   
   185  187  189 1   
@<TRIPOS>SUBSTRUCTURE
     1 MOL         1 TEMP              0 ****  ****    0 ROOT
