@<TRIPOS>MOLECULE
MOL
  185   180     1     0     0
SMALL
resp


@<TRIPOS>ATOM
      1 C1         -1.7430   -5.3300    4.6700 c3        1 MOL     -0.326669
      2 C2         -1.3030   -4.7490    3.3170 c         1 MOL      0.772635
      3 O1         -1.9700   -4.9770    2.2930 o         1 MOL     -0.614258
      4 H1         -1.2570   -6.2930    4.8270 hc        1 MOL      0.092300
      5 H2         -1.4610   -4.6460    5.4700 hc        1 MOL      0.092300
      6 H3         -2.8250   -5.4660    4.6730 hc        1 MOL      0.092300
      7 N1         -0.2050   -4.0050    3.2120 n         1 MOL     -0.590961
      8 C3          0.4250   -3.5830    1.9700 c3        1 MOL     -0.178387
      9 C4          1.3840   -4.6210    1.3190 c         1 MOL      0.726513
     10 O2          2.2180   -5.1890    2.0610 o         1 MOL     -0.535860
     11 C5          1.1370   -2.2360    2.2960 c3        1 MOL     -0.052072
     12 C6          1.8780   -1.5790    1.1080 c         1 MOL      0.821651
     13 O3          2.3840   -0.4770    1.2600 o         1 MOL     -0.825585
     14 O4          1.8610   -2.1010   -0.0170 o         1 MOL     -0.825585
     15 H4          0.3450   -3.7790    4.0290 hn        1 MOL      0.320457
     16 H5         -0.3270   -3.2820    1.2470 h1        1 MOL      0.091625
     17 H6          1.8220   -2.2820    3.1400 hc        1 MOL      0.053855
     18 H7          0.3850   -1.4750    2.4980 hc        1 MOL      0.053855
     19 N2          1.3990   -4.8870   -0.0210 n         1 MOL     -0.519627
     20 C7          2.1680   -5.9660   -0.6290 c3        1 MOL     -0.063860
     21 C8          3.6430   -5.7410   -0.6390 c         1 MOL      0.527167
     22 O5          4.4270   -6.6720   -0.6150 o         1 MOL     -0.538677
     23 C9          1.7140   -6.1980   -2.0630 c3        1 MOL     -0.029726
     24 C10         0.2450   -6.6140   -2.1920 c3        1 MOL      0.113667
     25 C11        -0.0660   -6.8900   -3.6620 c3        1 MOL     -0.173372
     26 C12        -0.1470   -5.7090   -4.6610 c3        1 MOL     -0.091546
     27 N3         -0.7160   -4.4220   -4.1660 n4        1 MOL     -0.355751
     28 H8          0.7950   -4.3820   -0.6560 hn        1 MOL      0.313948
     29 H9          2.0490   -6.8420    0.0070 h1        1 MOL      0.116608
     30 H10         2.3500   -6.9740   -2.5030 hc        1 MOL      0.030670
     31 H11         2.0040   -5.3020   -2.6110 hc        1 MOL      0.030670
     32 H12        -0.4470   -5.8220   -1.8930 hc        1 MOL      0.010711
     33 H13        -0.0570   -7.4650   -1.5910 hc        1 MOL      0.010711
     34 H14        -0.9800   -7.4880   -3.7050 hc        1 MOL      0.095521
     35 H15         0.5640   -7.6740   -4.0800 hc        1 MOL      0.095521
     36 H16        -0.5850   -6.0030   -5.6200 hx        1 MOL      0.121314
     37 H17         0.8870   -5.5360   -4.9860 hx        1 MOL      0.121314
     38 H18        -0.1580   -4.0710   -3.4070 hn        1 MOL      0.316129
     39 H19        -0.7740   -3.6970   -4.8630 hn        1 MOL      0.316129
     40 H20        -1.6500   -4.5410   -3.7980 hn        1 MOL      0.316129
     41 N4          4.0480   -4.4450   -0.7470 n         1 MOL     -0.295947
     42 C13         5.4520   -4.0100   -0.8710 c3        1 MOL      0.056152
     43 C14         5.9020   -3.0720    0.2770 c         1 MOL      0.393216
     44 O6          7.0940   -2.9350    0.5640 o         1 MOL     -0.556471
     45 C15         5.7710   -3.2950   -2.1860 c3        1 MOL     -0.463947
     46 C16         5.0050   -2.0620   -2.4960 c         1 MOL      0.668898
     47 O7          4.3220   -1.4260   -1.6240 o         1 MOL     -0.672882
     48 O8          5.0340   -1.4800   -3.5940 o         1 MOL     -0.672882
     49 H21         3.2890   -3.7810   -0.8090 hn        1 MOL      0.278310
     50 H22         6.1260   -4.8690   -0.8200 h1        1 MOL      0.122247
     51 H23         5.6300   -4.0640   -2.9360 hc        1 MOL      0.152073
     52 H24         6.8240   -2.9870   -2.2520 hc        1 MOL      0.152073
     53 N5          4.9510   -2.5430    0.9970 n         1 MOL     -0.013613
     54 C17         5.1900   -1.6860    2.1630 c3        1 MOL     -0.066959
     55 C18         5.6400   -0.2950    1.8730 c         1 MOL      0.507943
     56 O9          6.1590    0.4390    2.7310 o         1 MOL     -0.543714
     57 H25         4.0220   -2.8340    0.6980 hn        1 MOL     -0.011119
     58 H26         5.9070   -2.1370    2.8490 h1        1 MOL      0.071488
     59 H27         4.3310   -1.4920    2.8100 h1        1 MOL      0.071488
     60 N6          5.5850    0.1200    0.5560 n         1 MOL     -0.205885
     61 C19         6.3220    1.2320    0.0450 c3        1 MOL      0.119256
     62 C20         5.4000    2.3700   -0.3850 c         1 MOL      0.252881
     63 O10         4.2400    2.0810   -0.6530 o         1 MOL     -0.426275
     64 C21         7.4420    0.6560   -0.8840 c3        1 MOL     -0.273463
     65 C22         8.4200    1.7500   -1.3440 c         1 MOL      0.620063
     66 N7          9.0690    1.5240   -2.4620 n         1 MOL     -0.791096
     67 O11         8.6310    2.7510   -0.6530 o         1 MOL     -0.554943
     68 H28         5.1970   -0.5320   -0.1120 hn        1 MOL      0.142761
     69 H29         6.8850    1.6290    0.8840 h1        1 MOL      0.053830
     70 H30         6.9150    0.2740   -1.7530 hc        1 MOL      0.130540
     71 H31         8.0390   -0.0410   -0.2810 hc        1 MOL      0.130540
     72 H32         9.0320    0.6230   -2.9240 hn        1 MOL      0.376674
     73 H33         9.6700    2.2690   -2.7560 hn        1 MOL      0.376674
     74 N8          5.8890    3.6270   -0.3580 n         1 MOL     -0.174223
     75 C23         5.1820    4.8230   -0.7030 c3        1 MOL     -0.226305
     76 C24         3.9800    4.9550    0.2450 c         1 MOL      0.688832
     77 O12         4.1120    5.1010    1.4780 o         1 MOL     -0.533049
     78 H34         6.8420    3.7750   -0.0700 hn        1 MOL      0.266498
     79 H35         4.9460    4.8270   -1.7590 h1        1 MOL      0.103348
     80 H36         5.8230    5.6960   -0.6610 h1        1 MOL      0.103348
     81 N9          2.7300    4.7870   -0.2940 n         1 MOL     -0.733441
     82 C25         1.4550    4.6400    0.4460 c3        1 MOL      0.371191
     83 C26         1.1490    3.2440    1.0080 c         1 MOL      0.685036
     84 O13         1.4630    2.2590    0.3310 o         1 MOL     -0.635182
     85 C27         0.2840    5.0980   -0.4290 c3        1 MOL     -0.065598
     86 C28         0.4380    6.6140   -0.7480 ca        1 MOL     -0.000278
     87 C29         0.0560    7.5160    0.2920 ca        1 MOL     -0.130966
     88 C30         0.5660    7.1450   -2.0470 ca        1 MOL     -0.130966
     89 C31        -0.0260    8.8550    0.0540 ca        1 MOL     -0.245694
     90 C32         0.5730    8.5200   -2.2380 ca        1 MOL     -0.245694
     91 C33         0.3150    9.3920   -1.1880 ca        1 MOL      0.312103
     92 O14         0.3200   10.7180   -1.3660 oh        1 MOL     -0.414703
     93 H37         2.6740    4.4110   -1.2280 hn        1 MOL      0.296913
     94 H38         1.5830    5.2970    1.3080 h1        1 MOL      0.027231
     95 H39        -0.6750    4.8970    0.0320 hc        1 MOL      0.030837
     96 H40         0.1500    4.5490   -1.3560 hc        1 MOL      0.030837
     97 H41        -0.1300    7.1720    1.2980 ha        1 MOL      0.109733
     98 H42         0.7980    6.5090   -2.8910 ha        1 MOL      0.109733
     99 H43        -0.3070    9.5890    0.7940 ha        1 MOL      0.148371
    100 H44         0.8810    8.9260   -3.1960 ha        1 MOL      0.148371
    101 H45         0.5960   10.7980   -2.2820 ho        1 MOL      0.320300
    102 N10         0.3880    3.2390    2.1440 n         1 MOL     -0.844262
    103 C34        -0.1780    2.1140    2.9930 c3        1 MOL      0.459895
    104 C35        -0.8770    0.9510    2.2520 c         1 MOL      0.369969
    105 O15        -0.5660    0.5040    1.1610 o         1 MOL     -0.434151
    106 C36         0.9760    1.5700    3.9180 c3        1 MOL      0.191790
    107 C37         0.5860    0.5890    5.0660 c3        1 MOL      0.222182
    108 C38         1.6650    2.8080    4.5550 c3        1 MOL     -0.611569
    109 C39         1.7350   -0.0270    5.7980 c3        1 MOL     -0.258630
    110 H46        -0.0060    4.1330    2.3910 hn        1 MOL      0.338703
    111 H47        -0.9000    2.5700    3.6650 h1        1 MOL     -0.031906
    112 H48         1.6830    1.0190    3.3050 hc        1 MOL      0.072373
    113 H49         0.0070   -0.2230    4.6420 hc        1 MOL     -0.074827
    114 H50        -0.0090    1.1470    5.7830 hc        1 MOL     -0.074827
    115 H51         2.4660    3.0680    3.8640 hc        1 MOL      0.158398
    116 H52         0.9430    3.5710    4.8310 hc        1 MOL      0.158398
    117 H53         2.1980    2.5890    5.4770 hc        1 MOL      0.158398
    118 H54         2.4630   -0.3460    5.0570 hc        1 MOL      0.061701
    119 H55         2.2830    0.6790    6.4210 hc        1 MOL      0.061701
    120 H56         1.2490   -0.8690    6.2930 hc        1 MOL      0.061701
    121 N11        -1.8710    0.3880    2.9960 n         1 MOL     -0.608516
    122 C40        -2.6700   -0.7960    2.7500 c3        1 MOL      0.042771
    123 C41        -3.6300   -0.6170    1.5600 c         1 MOL      0.435535
    124 O16        -4.4030   -1.5150    1.2630 o         1 MOL     -0.523008
    125 C42        -3.5860   -1.1060    3.9290 c3        1 MOL      0.260201
    126 O17        -2.8220   -1.1160    5.1340 oh        1 MOL     -0.576156
    127 H57        -1.9940    0.8080    3.9040 hn        1 MOL      0.258337
    128 H58        -2.0420   -1.6320    2.4590 h1        1 MOL      0.175904
    129 H59        -4.0710   -2.0210    3.5870 h1        1 MOL      0.028345
    130 H60        -4.3880   -0.3620    3.9480 h1        1 MOL      0.028345
    131 H61        -2.8360   -0.1840    5.3910 ho        1 MOL      0.369789
    132 N12        -3.7500    0.5020    0.7910 n         1 MOL     -0.314786
    133 C43        -4.5150    0.5430   -0.3940 c3        1 MOL      0.038872
    134 C44        -4.0940   -0.4710   -1.3990 c         1 MOL      0.711227
    135 O18        -2.9110   -0.6450   -1.7710 o         1 MOL     -0.641056
    136 C45        -4.4470    1.9040   -1.0570 c3        1 MOL     -0.407075
    137 H62        -3.1750    1.2830    1.0520 hn        1 MOL      0.245164
    138 H63        -5.5450    0.3590   -0.0900 h1        1 MOL      0.061596
    139 H64        -4.8900    1.8790   -2.0560 hc        1 MOL      0.126321
    140 H65        -5.0550    2.5590   -0.4230 hc        1 MOL      0.126321
    141 H66        -3.4110    2.2340   -1.1190 hc        1 MOL      0.126321
    142 N13        -5.0430   -1.1790   -1.9660 n         1 MOL     -0.674400
    143 C46        -6.4160   -1.3100   -1.6040 c3        1 MOL      0.438533
    144 C47        -7.2800   -0.0950   -2.0010 c         1 MOL      0.724943
    145 O19        -6.9660    0.6020   -2.9730 o         1 MOL     -0.623654
    146 C48        -7.0010   -2.4930   -2.3430 c3        1 MOL     -0.272177
    147 H67        -4.7380   -1.7080   -2.7730 hn        1 MOL      0.303922
    148 H68        -6.5820   -1.6340   -0.5730 h1        1 MOL      0.030832
    149 H69        -6.3670   -3.3480   -2.1270 hc        1 MOL      0.058586
    150 H70        -8.0560   -2.6400   -2.1070 hc        1 MOL      0.058586
    151 H71        -7.0030   -2.1660   -3.3820 hc        1 MOL      0.058586
    152 N14        -8.3800    0.2130   -1.3260 n         1 MOL     -0.733936
    153 C49        -9.0500   -0.5460   -0.2250 c3        1 MOL     -0.058369
    154 C50        -9.2540    0.2830    1.0080 c         1 MOL      0.495813
    155 O20        -9.1790   -0.2690    2.0980 o         1 MOL     -0.553471
    156 C51       -10.3080   -1.2260   -0.7530 c3        1 MOL      0.150172
    157 C52       -11.5180   -0.3280   -1.0760 c3        1 MOL     -0.332667
    158 C53       -11.2480    0.7840   -2.0620 c         1 MOL      0.798734
    159 O21       -11.8060    0.6910   -3.1940 o         1 MOL     -0.671494
    160 O22       -10.5540    1.7730   -1.8620 o         1 MOL     -0.671494
    161 H72        -8.8640    0.9590   -1.7950 hn        1 MOL      0.359691
    162 H73        -8.4480   -1.3700    0.1330 h1        1 MOL      0.048362
    163 H74       -10.5090   -2.0620   -0.0860 hc        1 MOL      0.011686
    164 H75        -9.9910   -1.8290   -1.6010 hc        1 MOL      0.011686
    165 H76       -11.8970    0.1430   -0.1740 hc        1 MOL      0.065327
    166 H77       -12.3330   -0.9920   -1.3910 hc        1 MOL      0.065327
    167 N15        -9.6300    1.5550    0.9030 n         1 MOL     -0.232520
    168 C54       -10.0500    2.4460    2.0370 c3        1 MOL     -0.219017
    169 H78       -10.3160    3.4290    1.6470 h1        1 MOL      0.097979
    170 H79       -10.9140    2.0120    2.5410 h1        1 MOL      0.097979
    171 H80        -9.2280    2.5470    2.7450 h1        1 MOL      0.097979
    172 H81        -9.8710    1.9830    0.0180 hn        1 MOL      0.229280
    173 Ca1         2.4940    0.3870   -1.1820 Ca        1 MOL      1.725569
    174 O23         1.3870    2.3440   -2.5900 oh        1 MOL     -0.762084
    175 H82         2.0780    2.9410   -2.8810 ho        1 MOL      0.367026
    176 H83         0.8710    2.1680   -3.3770 ho        1 MOL      0.367026
    177 O24        -0.1840   -0.1930   -1.2610 oh        1 MOL     -0.762084
    178 H84        -0.9930   -0.3260   -1.7540 ho        1 MOL      0.367026
    179 H85        -0.4340    0.3960   -0.5440 ho        1 MOL      0.367026
    180 O25         4.1660    1.0030   -3.1970 oh        1 MOL     -0.762084
    181 H86         4.5260    0.1600   -3.4780 ho        1 MOL      0.367026
    182 H87         4.2260    1.5520   -3.9710 ho        1 MOL      0.367026
    183 O26         1.5790   -0.6300   -3.7460 oh        1 MOL     -0.762084
    184 H88         1.8890   -0.2560   -4.5690 ho        1 MOL      0.367026
    185 H89         0.6420   -0.7810   -3.8930 ho        1 MOL      0.367026
@<TRIPOS>BOND
     1    1    2 1   
     2    1    4 1   
     3    1    5 1   
     4    1    6 1   
     5    2    3 2   
     6    2    7 1   
     7    7    8 1   
     8    7   15 1   
     9    8    9 1   
    10    8   11 1   
    11    8   16 1   
    12    9   10 2   
    13    9   19 1   
    14   11   12 1   
    15   11   17 1   
    16   11   18 1   
    17   12   13 1   
    18   12   14 1   
    19   19   20 1   
    20   19   28 1   
    21   20   21 1   
    22   20   23 1   
    23   20   29 1   
    24   21   22 2   
    25   21   41 1   
    26   23   24 1   
    27   23   30 1   
    28   23   31 1   
    29   24   25 1   
    30   24   32 1   
    31   24   33 1   
    32   25   26 1   
    33   25   34 1   
    34   25   35 1   
    35   26   27 1   
    36   26   36 1   
    37   26   37 1   
    38   27   38 1   
    39   27   39 1   
    40   27   40 1   
    41   41   42 1   
    42   41   49 1   
    43   42   43 1   
    44   42   45 1   
    45   42   50 1   
    46   43   44 2   
    47   43   53 1   
    48   45   46 1   
    49   45   51 1   
    50   45   52 1   
    51   46   47 1   
    52   46   48 1   
    53   53   54 1   
    54   53   57 1   
    55   54   55 1   
    56   54   58 1   
    57   54   59 1   
    58   55   56 2   
    59   55   60 1   
    60   60   61 1   
    61   60   68 1   
    62   61   62 1   
    63   61   64 1   
    64   61   69 1   
    65   62   63 2   
    66   62   74 1   
    67   64   65 1   
    68   64   70 1   
    69   64   71 1   
    70   65   66 1   
    71   65   67 2   
    72   66   72 1   
    73   66   73 1   
    74   74   75 1   
    75   74   78 1   
    76   75   76 1   
    77   75   79 1   
    78   75   80 1   
    79   76   77 2   
    80   76   81 1   
    81   81   82 1   
    82   81   93 1   
    83   82   83 1   
    84   82   85 1   
    85   82   94 1   
    86   83   84 2   
    87   83  102 1   
    88   85   86 1   
    89   85   95 1   
    90   85   96 1   
    91   86   87 ar  
    92   86   88 ar  
    93   87   89 ar  
    94   87   97 1   
    95   88   90 ar  
    96   88   98 1   
    97   89   91 ar  
    98   89   99 1   
    99   90   91 ar  
   100   90  100 1   
   101   91   92 1   
   102   92  101 1   
   103  102  103 1   
   104  102  110 1   
   105  103  104 1   
   106  103  106 1   
   107  103  111 1   
   108  104  105 2   
   109  104  121 1   
   110  106  107 1   
   111  106  108 1   
   112  106  112 1   
   113  107  109 1   
   114  107  113 1   
   115  107  114 1   
   116  108  115 1   
   117  108  116 1   
   118  108  117 1   
   119  109  118 1   
   120  109  119 1   
   121  109  120 1   
   122  121  122 1   
   123  121  127 1   
   124  122  123 1   
   125  122  125 1   
   126  122  128 1   
   127  123  124 2   
   128  123  132 1   
   129  125  126 1   
   130  125  129 1   
   131  125  130 1   
   132  126  131 1   
   133  132  133 1   
   134  132  137 1   
   135  133  134 1   
   136  133  136 1   
   137  133  138 1   
   138  134  135 2   
   139  134  142 1   
   140  136  139 1   
   141  136  140 1   
   142  136  141 1   
   143  142  143 1   
   144  142  147 1   
   145  143  144 1   
   146  143  146 1   
   147  143  148 1   
   148  144  145 2   
   149  144  152 1   
   150  146  149 1   
   151  146  150 1   
   152  146  151 1   
   153  152  153 1   
   154  152  161 1   
   155  153  154 1   
   156  153  156 1   
   157  153  162 1   
   158  154  155 2   
   159  154  167 1   
   160  156  157 1   
   161  156  163 1   
   162  156  164 1   
   163  157  158 1   
   164  157  165 1   
   165  157  166 1   
   166  158  159 1   
   167  158  160 1   
   168  167  168 1   
   169  167  172 1   
   170  168  169 1   
   171  168  170 1   
   172  168  171 1   
   173  174  175 1   
   174  174  176 1   
   175  177  178 1   
   176  177  179 1   
   177  180  181 1   
   178  180  182 1   
   179  183  184 1   
   180  183  185 1   
@<TRIPOS>SUBSTRUCTURE
     1 MOL         1 TEMP              0 ****  ****    0 ROOT
