@<TRIPOS>MOLECULE
MOL
  183   181     1     0     0
SMALL
resp


@<TRIPOS>ATOM
      1 C1          4.5920    3.9340   -3.5690 c3        1 MOL     -0.303798
      2 C2          5.3090    3.1590   -2.4220 c         1 MOL      0.530777
      3 O1          4.6570    2.9170   -1.4280 o         1 MOL     -0.464580
      4 H1          5.1440    4.8480   -3.7910 hc        1 MOL      0.090099
      5 H2          4.5520    3.3090   -4.4620 hc        1 MOL      0.090099
      6 H3          3.5790    4.1890   -3.2590 hc        1 MOL      0.090099
      7 N1          6.5550    2.5910   -2.5810 n         1 MOL     -0.575745
      8 C3          7.2770    1.5060   -1.8260 c3        1 MOL      0.296102
      9 C4          6.2780    0.4030   -1.4550 c         1 MOL      0.460066
     10 O2          5.8890    0.2220   -0.3040 o         1 MOL     -0.601852
     11 C5          8.2100    1.9550   -0.6950 c3        1 MOL     -0.307312
     12 C6          7.6570    3.1830    0.0750 c         1 MOL      0.769948
     13 O3          6.6640    3.0320    0.7340 o         1 MOL     -0.724801
     14 O4          8.2890    4.3170   -0.0070 o         1 MOL     -0.724801
     15 H4          7.0680    2.9090   -3.4000 hn        1 MOL      0.293477
     16 H5          7.9310    1.1000   -2.6020 h1        1 MOL      0.008429
     17 H6          9.1050    2.3190   -1.1940 hc        1 MOL      0.060650
     18 H7          8.3590    1.0660   -0.0880 hc        1 MOL      0.060650
     19 N2          5.9490   -0.3380   -2.5390 n         1 MOL     -0.583122
     20 C7          5.0830   -1.5600   -2.5920 c3        1 MOL      0.308356
     21 C8          5.7010   -2.7810   -1.8800 c         1 MOL      0.312932
     22 O5          6.0190   -3.7590   -2.5400 o         1 MOL     -0.555154
     23 C9          3.6640   -1.2770   -2.3520 c3        1 MOL      0.114391
     24 C10         2.8000   -2.5730   -2.4420 c3        1 MOL      0.090723
     25 C11         3.1400   -0.1190   -3.2200 c3        1 MOL      0.026688
     26 C12         2.7060   -3.1910   -3.8410 c3        1 MOL     -0.475955
     27 H8          6.2280   -0.0100   -3.4570 hn        1 MOL      0.299191
     28 H9          5.1110   -1.8010   -3.6500 h1        1 MOL     -0.042430
     29 H10         3.7130   -0.9480   -1.3080 hc        1 MOL     -0.035924
     30 H11         1.7680   -2.3920   -2.1240 hc        1 MOL      0.021432
     31 H12         3.2440   -3.3020   -1.7680 hc        1 MOL      0.021432
     32 H13         2.9530   -0.4100   -4.2550 hc        1 MOL     -0.026747
     33 H14         2.1920    0.2940   -2.8730 hc        1 MOL     -0.026747
     34 H15         3.9030    0.6590   -3.2260 hc        1 MOL     -0.026747
     35 H16         2.0360   -4.0330   -3.6950 hc        1 MOL      0.107883
     36 H17         2.2260   -2.5140   -4.5380 hc        1 MOL      0.107883
     37 H18         3.6800   -3.6240   -4.1000 hc        1 MOL      0.107883
     38 N3          5.9440   -2.6430   -0.5990 n         1 MOL     -0.133640
     39 C13         6.7910   -3.4900    0.2130 c3        1 MOL      0.084602
     40 C14         5.9660   -4.6200    0.8730 c         1 MOL      0.481142
     41 O6          6.4270   -5.7620    0.7920 o         1 MOL     -0.553298
     42 C15         7.6150   -2.5540    1.1570 c3        1 MOL     -0.198841
     43 C16         8.6410   -3.2380    2.0940 c         1 MOL      0.647311
     44 O7          8.1450   -3.9160    3.0530 o         1 MOL     -0.713098
     45 O8          9.9050   -2.9890    1.9400 o         1 MOL     -0.713098
     46 H19         5.5760   -1.7680   -0.2550 hn        1 MOL      0.235381
     47 H20         7.4870   -4.0670   -0.3920 h1        1 MOL      0.050322
     48 H21         6.8800   -2.1190    1.8290 hc        1 MOL      0.060802
     49 H22         8.2130   -1.8060    0.6270 hc        1 MOL      0.060802
     50 N4          4.7850   -4.4350    1.4680 n         1 MOL     -0.454684
     51 C17         4.1460   -3.1950    1.8690 c3        1 MOL      0.035411
     52 C18         3.0800   -3.4890    2.9220 c         1 MOL      0.704413
     53 O9          2.7040   -4.6060    3.2090 o         1 MOL     -0.599446
     54 H23         4.3300   -5.2970    1.7270 hn        1 MOL      0.272426
     55 H24         3.6070   -2.8640    0.9800 h1        1 MOL      0.065170
     56 H25         4.8980   -2.5210    2.2700 h1        1 MOL      0.065170
     57 N5          2.4410   -2.5240    3.5620 n         1 MOL     -0.666281
     58 C19         2.4080   -1.0710    3.4650 c3        1 MOL      0.321756
     59 C20         2.4600   -0.7090    1.9600 c         1 MOL      0.079063
     60 O10         3.4880   -0.4040    1.3680 o         1 MOL     -0.561928
     61 C21         3.5380   -0.4720    4.2100 c3        1 MOL     -0.189381
     62 C22         3.3590    1.0770    4.3230 c         1 MOL      0.528043
     63 O11         3.2960    1.7970    3.3130 o         1 MOL     -0.632032
     64 O12         3.2030    1.5920    5.4030 o         1 MOL     -0.632032
     65 H26         1.9030   -2.9580    4.2920 hn        1 MOL      0.309546
     66 H27         1.4450   -0.7740    3.8680 h1        1 MOL      0.085101
     67 H28         4.4390   -0.7680    3.6880 hc        1 MOL      0.063450
     68 H29         3.5290   -0.9300    5.2000 hc        1 MOL      0.063450
     69 N6          1.4250   -0.8040    1.1630 n         1 MOL     -0.029405
     70 C23         0.0330   -1.2800    1.4070 c3        1 MOL     -0.260624
     71 C24        -0.3660   -2.5790    0.6730 c         1 MOL      0.578221
     72 O13         0.3190   -3.1860   -0.1410 o         1 MOL     -0.471806
     73 H30         1.6940   -0.6090    0.2170 hn        1 MOL      0.224669
     74 H31        -0.6340   -0.4790    1.0740 h1        1 MOL      0.128535
     75 H32        -0.1490   -1.3540    2.4740 h1        1 MOL      0.128535
     76 N7         -1.7260   -2.8890    0.8350 n         1 MOL     -0.526575
     77 C25        -2.3800   -4.0430    0.2480 c3        1 MOL      0.044753
     78 C26        -2.5700   -3.8120   -1.2840 c         1 MOL      0.337747
     79 O14        -2.5370   -4.7810   -2.0040 o         1 MOL     -0.513876
     80 C27        -3.7720   -4.2250    0.9310 c3        1 MOL      0.194360
     81 C28        -4.4460   -5.5870    0.6560 c3        1 MOL     -0.367570
     82 C29        -5.6930   -5.6340    1.5110 c         1 MOL      0.758730
     83 N8         -6.8430   -5.1630    1.1300 n         1 MOL     -0.856568
     84 O15        -5.7200   -6.1680    2.5800 o         1 MOL     -0.614451
     85 H33        -2.1940   -2.3390    1.5370 hn        1 MOL      0.263553
     86 H34        -1.8470   -4.9820    0.4380 h1        1 MOL      0.127256
     87 H35        -4.4830   -3.4820    0.5880 hc        1 MOL     -0.020166
     88 H36        -3.6050   -4.1710    2.0110 hc        1 MOL     -0.020166
     89 H37        -3.8580   -6.3740    1.1210 hc        1 MOL      0.099811
     90 H38        -4.6000   -5.8180   -0.3960 hc        1 MOL      0.099811
     91 H39        -6.9200   -4.7330    0.2120 hn        1 MOL      0.375131
     92 H40        -7.6020   -5.2260    1.7920 hn        1 MOL      0.375131
     93 N9         -2.7760   -2.6020   -1.8130 n         1 MOL      0.007961
     94 C30        -3.1970   -2.2700   -3.2020 c3        1 MOL     -0.276051
     95 C31        -4.4480   -1.4140   -3.3150 c         1 MOL      0.453866
     96 O16        -4.7330   -0.7860   -4.3600 o         1 MOL     -0.528983
     97 C32        -2.0370   -1.8150   -4.0020 c3        1 MOL      0.324400
     98 C33        -1.0000   -2.8890   -4.1890 c3        1 MOL     -0.298580
     99 C34        -1.3730   -0.5910   -3.4080 c3        1 MOL     -0.298580
    100 H41        -2.5690   -1.7960   -1.2430 hn        1 MOL      0.076078
    101 H42        -3.5270   -3.2220   -3.6360 h1        1 MOL      0.154362
    102 H43        -2.3720   -1.4970   -4.9860 hc        1 MOL     -0.015116
    103 H44        -0.5140   -3.1510   -3.2460 hc        1 MOL      0.073002
    104 H45        -1.4980   -3.7710   -4.5910 hc        1 MOL      0.073002
    105 H46        -0.2530   -2.5500   -4.9160 hc        1 MOL      0.073002
    106 H47        -2.1240    0.2060   -3.4110 hc        1 MOL      0.073002
    107 H48        -1.0120   -0.7920   -2.4080 hc        1 MOL      0.073002
    108 H49        -0.5210   -0.1900   -3.9610 hc        1 MOL      0.073002
    109 N10        -5.1580   -1.2030   -2.2280 n         1 MOL     -0.429666
    110 C35        -6.4980   -0.6000   -2.1210 c3        1 MOL      0.314804
    111 C36        -6.6570    0.7720   -1.4100 c         1 MOL      0.506005
    112 O17        -7.5250    1.6140   -1.7010 o         1 MOL     -0.561046
    113 C37        -7.4890   -1.6010   -1.4540 c3        1 MOL     -0.274487
    114 C38        -7.4190   -2.9910   -2.0770 c         1 MOL      0.625498
    115 N11        -7.4980   -3.1200   -3.4390 n         1 MOL     -0.794331
    116 O18        -7.0340   -4.0040   -1.4670 o         1 MOL     -0.542189
    117 H50        -4.7030   -1.4990   -1.3770 hn        1 MOL      0.282909
    118 H51        -6.8790   -0.4060   -3.1220 h1        1 MOL      0.003988
    119 H52        -8.4490   -1.1040   -1.5880 hc        1 MOL      0.072954
    120 H53        -7.1700   -1.6640   -0.4150 hc        1 MOL      0.072954
    121 H54        -7.6210   -2.3440   -4.0780 hn        1 MOL      0.375551
    122 H55        -7.3280   -4.0300   -3.8360 hn        1 MOL      0.375551
    123 N12        -5.7130    0.9890   -0.5390 n         1 MOL     -0.534961
    124 C39        -5.6700    2.1490    0.3760 c3        1 MOL      0.351217
    125 C40        -4.2450    2.7880    0.3950 c         1 MOL      0.483542
    126 O19        -3.1640    2.1420    0.2520 o         1 MOL     -0.553817
    127 C41        -6.1040    1.8050    1.7490 c3        1 MOL     -0.087283
    128 C42        -7.4250    1.0010    1.7680 ca        1 MOL      0.000424
    129 C43        -7.4740   -0.3930    2.1220 ca        1 MOL     -0.070423
    130 C44        -8.5560    1.6130    1.3290 ca        1 MOL     -0.070423
    131 C45        -8.7280   -0.9750    2.2570 ca        1 MOL     -0.287139
    132 C46        -9.8490    0.9900    1.4210 ca        1 MOL     -0.287139
    133 C47        -9.9550   -0.3590    1.8670 ca        1 MOL      0.315748
    134 O20       -11.1510   -1.0620    2.0160 oh        1 MOL     -0.479366
    135 H56        -5.1160    0.2110   -0.3040 hn        1 MOL      0.242794
    136 H57        -6.3100    2.9650    0.0510 h1        1 MOL     -0.003314
    137 H58        -6.2550    2.6840    2.3710 hc        1 MOL      0.050850
    138 H59        -5.3800    1.1890    2.2780 hc        1 MOL      0.050850
    139 H60        -6.5370   -0.8190    2.4460 ha        1 MOL      0.110292
    140 H61        -8.4720    2.5980    0.8870 ha        1 MOL      0.110292
    141 H62        -8.8750   -1.9890    2.6090 ha        1 MOL      0.138672
    142 H63       -10.7470    1.5550    1.2110 ha        1 MOL      0.138672
    143 H64       -11.8740   -0.4860    1.7610 ho        1 MOL      0.354619
    144 N13        -4.2210    4.0160    0.8260 n         1 MOL     -0.668896
    145 C48        -3.1130    4.7870    1.3200 c3        1 MOL      0.300917
    146 C49        -1.9210    4.9760    0.3680 c         1 MOL      0.248347
    147 O21        -1.0790    5.8340    0.5550 o         1 MOL     -0.483900
    148 C50        -2.6710    4.4220    2.6860 c3        1 MOL      0.010650
    149 C51        -3.5560    5.0290    3.7940 c3        1 MOL     -0.353064
    150 C52        -3.1970    4.3910    5.1430 c         1 MOL      0.750734
    151 O22        -3.9070    3.4700    5.5790 o         1 MOL     -0.725966
    152 O23        -2.2560    4.7870    5.8570 o         1 MOL     -0.725966
    153 H65        -5.1550    4.3520    0.9970 hn        1 MOL      0.335818
    154 H66        -3.4470    5.8240    1.4060 h1        1 MOL      0.026883
    155 H67        -1.6710    4.8090    2.8220 hc        1 MOL      0.076247
    156 H68        -2.7120    3.3400    2.8510 hc        1 MOL      0.076247
    157 H69        -4.6100    4.8180    3.5740 hc        1 MOL      0.036279
    158 H70        -3.3320    6.0910    3.8300 hc        1 MOL      0.036279
    159 N14        -1.7680    4.3020   -0.7820 n         1 MOL     -0.092281
    160 C53        -0.5180    4.4050   -1.5750 c3        1 MOL     -0.237240
    161 C54        -0.6780    5.2750   -2.8730 c         1 MOL      0.466868
    162 O24         0.2760    5.4190   -3.6900 o         1 MOL     -0.544462
    163 C55        -0.1570    2.9820   -1.9540 c3        1 MOL     -0.024258
    164 C56         0.2090    2.0880   -0.7680 c3        1 MOL      0.381799
    165 C57         1.6170    2.2030   -0.2790 c         1 MOL      0.444191
    166 O25         1.9020    3.0880    0.6140 o         1 MOL     -0.647530
    167 O26         2.4980    1.3610   -0.5310 o         1 MOL     -0.647530
    168 H71        -2.4470    3.6290   -1.1220 hn        1 MOL      0.163891
    169 H72         0.3580    4.8130   -1.0710 h1        1 MOL      0.202593
    170 H73         0.7130    3.0240   -2.6060 hc        1 MOL      0.010450
    171 H74        -0.9950    2.6220   -2.5510 hc        1 MOL      0.010450
    172 H75         0.0610    1.0910   -1.1860 hc        1 MOL     -0.093968
    173 H76        -0.5060    2.0530    0.0650 hc        1 MOL     -0.093968
    174 N15        -1.8860    5.6600   -3.1890 n         1 MOL     -0.186633
    175 C58        -2.2840    6.6180   -4.1720 c3        1 MOL     -0.262245
    176 H77        -2.0030    7.6170   -3.8400 h1        1 MOL      0.103494
    177 H78        -1.7880    6.3970   -5.1170 h1        1 MOL      0.103494
    178 H79        -3.3640    6.5720   -4.3080 h1        1 MOL      0.103494
    179 H80        -2.5780    5.5500   -2.4610 hn        1 MOL      0.195447
    180 Ca1         4.4030    2.0800    0.9450 Ca        1 MOL      1.696652
    181 O27         4.5810    4.8110    0.6550 oh        1 MOL     -0.856418
    182 H81         5.5090    4.6940    0.4800 ho        1 MOL      0.404511
    183 H82         4.2740    5.4030   -0.0270 ho        1 MOL      0.404511
@<TRIPOS>BOND
     1    1    2 1   
     2    1    4 1   
     3    1    5 1   
     4    1    6 1   
     5    2    3 2   
     6    2    7 1   
     7    7    8 1   
     8    7   15 1   
     9    8    9 1   
    10    8   11 1   
    11    8   16 1   
    12    9   10 2   
    13    9   19 1   
    14   11   12 1   
    15   11   17 1   
    16   11   18 1   
    17   12   13 1   
    18   12   14 1   
    19   19   20 1   
    20   19   27 1   
    21   20   21 1   
    22   20   23 1   
    23   20   28 1   
    24   21   22 2   
    25   21   38 1   
    26   23   24 1   
    27   23   25 1   
    28   23   29 1   
    29   24   26 1   
    30   24   30 1   
    31   24   31 1   
    32   25   32 1   
    33   25   33 1   
    34   25   34 1   
    35   26   35 1   
    36   26   36 1   
    37   26   37 1   
    38   38   39 1   
    39   38   46 1   
    40   39   40 1   
    41   39   42 1   
    42   39   47 1   
    43   40   41 2   
    44   40   50 1   
    45   42   43 1   
    46   42   48 1   
    47   42   49 1   
    48   43   44 1   
    49   43   45 1   
    50   50   51 1   
    51   50   54 1   
    52   51   52 1   
    53   51   55 1   
    54   51   56 1   
    55   52   53 2   
    56   52   57 1   
    57   57   58 1   
    58   57   65 1   
    59   58   59 1   
    60   58   61 1   
    61   58   66 1   
    62   59   60 2   
    63   59   69 1   
    64   61   62 1   
    65   61   67 1   
    66   61   68 1   
    67   62   63 1   
    68   62   64 1   
    69   69   70 1   
    70   69   73 1   
    71   70   71 1   
    72   70   74 1   
    73   70   75 1   
    74   71   72 2   
    75   71   76 1   
    76   76   77 1   
    77   76   85 1   
    78   77   78 1   
    79   77   80 1   
    80   77   86 1   
    81   78   79 2   
    82   78   93 1   
    83   80   81 1   
    84   80   87 1   
    85   80   88 1   
    86   81   82 1   
    87   81   89 1   
    88   81   90 1   
    89   82   83 1   
    90   82   84 2   
    91   83   91 1   
    92   83   92 1   
    93   93   94 1   
    94   93  100 1   
    95   94   95 1   
    96   94   97 1   
    97   94  101 1   
    98   95   96 2   
    99   95  109 1   
   100   97   98 1   
   101   97   99 1   
   102   97  102 1   
   103   98  103 1   
   104   98  104 1   
   105   98  105 1   
   106   99  106 1   
   107   99  107 1   
   108   99  108 1   
   109  109  110 1   
   110  109  117 1   
   111  110  111 1   
   112  110  113 1   
   113  110  118 1   
   114  111  112 2   
   115  111  123 1   
   116  113  114 1   
   117  113  119 1   
   118  113  120 1   
   119  114  115 1   
   120  114  116 2   
   121  115  121 1   
   122  115  122 1   
   123  123  124 1   
   124  123  135 1   
   125  124  125 1   
   126  124  127 1   
   127  124  136 1   
   128  125  126 2   
   129  125  144 1   
   130  127  128 1   
   131  127  137 1   
   132  127  138 1   
   133  128  129 ar  
   134  128  130 ar  
   135  129  131 ar  
   136  129  139 1   
   137  130  132 ar  
   138  130  140 1   
   139  131  133 ar  
   140  131  141 1   
   141  132  133 ar  
   142  132  142 1   
   143  133  134 1   
   144  134  143 1   
   145  144  145 1   
   146  144  153 1   
   147  145  146 1   
   148  145  148 1   
   149  145  154 1   
   150  146  147 2   
   151  146  159 1   
   152  148  149 1   
   153  148  155 1   
   154  148  156 1   
   155  149  150 1   
   156  149  157 1   
   157  149  158 1   
   158  150  151 1   
   159  150  152 1   
   160  159  160 1   
   161  159  168 1   
   162  160  161 1   
   163  160  163 1   
   164  160  169 1   
   165  161  162 2   
   166  161  174 1   
   167  163  164 1   
   168  163  170 1   
   169  163  171 1   
   170  164  165 1   
   171  164  172 1   
   172  164  173 1   
   173  165  166 1   
   174  165  167 1   
   175  174  175 1   
   176  174  179 1   
   177  175  176 1   
   178  175  177 1   
   179  175  178 1   
   180  181  182 1   
   181  181  183 1   
@<TRIPOS>SUBSTRUCTURE
     1 MOL         1 TEMP              0 ****  ****    0 ROOT
