@<TRIPOS>MOLECULE
MOL
  195   189     1     0     0
SMALL
resp


@<TRIPOS>ATOM
      1 C1        -11.0140    6.8010    1.5830 c3        1 MOL     -0.624289
      2 C2        -11.1410    5.3000    1.4690 c         1 MOL      0.788529
      3 O1        -11.9050    4.6120    2.1620 o         1 MOL     -0.642645
      4 H1        -10.1770    7.0460    2.2370 hc        1 MOL      0.167306
      5 H2        -10.8400    7.2280    0.5950 hc        1 MOL      0.167306
      6 H3        -11.9330    7.2130    1.9990 hc        1 MOL      0.167306
      7 N1        -10.3970    4.6860    0.5690 n         1 MOL     -0.263426
      8 C3        -10.4490    3.2660    0.1860 c3        1 MOL     -0.528541
      9 C4         -9.4540    2.3870    0.9010 c         1 MOL      0.444531
     10 O2         -8.2830    2.7420    1.0860 o         1 MOL     -0.576820
     11 C5        -10.3370    3.2290   -1.4070 c3        1 MOL      0.589747
     12 C6         -9.0550    3.9350   -2.0500 c         1 MOL      0.560256
     13 O3         -8.1160    4.4140   -1.3400 o         1 MOL     -0.661314
     14 O4         -8.9670    3.9700   -3.3070 o         1 MOL     -0.661314
     15 H4         -9.8030    5.3240    0.0460 hn        1 MOL      0.053570
     16 H5        -11.4410    2.8780    0.4220 h1        1 MOL      0.180166
     17 H6        -11.2290    3.6840   -1.8240 hc        1 MOL     -0.108363
     18 H7        -10.3860    2.1620   -1.6440 hc        1 MOL     -0.108363
     19 N2         -9.8950    1.1580    1.2540 n         1 MOL     -0.114673
     20 C7         -8.9820    0.1240    1.7810 c3        1 MOL     -0.020724
     21 C8         -8.0580   -0.4820    0.7380 c         1 MOL      0.513510
     22 O5         -6.9780   -0.9880    1.1640 o         1 MOL     -0.553391
     23 C9         -9.7510   -0.9960    2.5000 c3        1 MOL     -0.301887
     24 C10       -10.4430   -0.5410    3.8460 c3        1 MOL      0.015635
     25 C11       -11.3990   -1.6680    4.3400 c3        1 MOL      0.047035
     26 C12       -12.3630   -1.0290    5.3550 c3        1 MOL      0.027214
     27 N3        -13.4710   -2.0400    5.7170 n4        1 MOL     -0.209883
     28 H8        -10.8820    0.9590    1.1610 hn        1 MOL      0.257069
     29 H9         -8.3210    0.5770    2.5180 h1        1 MOL      0.086149
     30 H10        -9.0900   -1.8120    2.7920 hc        1 MOL      0.118514
     31 H11       -10.4690   -1.4380    1.8060 hc        1 MOL      0.118514
     32 H12       -10.9440    0.3920    3.6360 hc        1 MOL      0.020850
     33 H13        -9.7100   -0.3970    4.6450 hc        1 MOL      0.020850
     34 H14       -10.8900   -2.4320    4.9210 hc        1 MOL      0.018296
     35 H15       -11.9250   -2.0610    3.4690 hc        1 MOL      0.018296
     36 H16       -12.7470   -0.1470    4.8620 hx        1 MOL      0.068111
     37 H17       -11.7730   -0.7700    6.2350 hx        1 MOL      0.068111
     38 H18       -13.1170   -2.8030    6.2660 hn        1 MOL      0.218039
     39 H19       -14.3080   -1.6440    6.1270 hn        1 MOL      0.218039
     40 H20       -13.8990   -2.5240    4.9500 hn        1 MOL      0.218039
     41 N4         -8.3270   -0.3830   -0.5600 n         1 MOL     -0.468705
     42 C13        -7.3810   -0.6460   -1.6540 c3        1 MOL      0.455910
     43 C14        -6.3650    0.5600   -1.8380 c         1 MOL      0.381434
     44 O6         -6.5330    1.5880   -1.2050 o         1 MOL     -0.538083
     45 C15        -8.2590   -1.0090   -2.8800 c3        1 MOL     -0.432284
     46 C16        -9.3520   -0.0070   -3.3790 c         1 MOL      0.674312
     47 O7        -10.3350    0.0950   -2.5840 o         1 MOL     -0.632555
     48 O8         -9.1950    0.5390   -4.5060 o         1 MOL     -0.632555
     49 H21        -9.1950    0.0250   -0.8790 hn        1 MOL      0.160700
     50 H22        -6.8080   -1.5090   -1.3390 h1        1 MOL      0.036955
     51 H23        -8.6750   -1.9900   -2.6760 hc        1 MOL      0.093978
     52 H24        -7.6190   -1.1880   -3.7440 hc        1 MOL      0.093978
     53 N5         -5.2100    0.4480   -2.4230 n         1 MOL     -0.308329
     54 C17        -4.6780   -0.6860   -3.1360 c3        1 MOL      0.006156
     55 C18        -4.6470   -1.9910   -2.2580 c         1 MOL      0.494073
     56 O9         -4.5510   -1.9340   -1.0410 o         1 MOL     -0.526071
     57 H25        -4.7200    1.3220   -2.4180 hn        1 MOL      0.207016
     58 H26        -3.6890   -0.5560   -3.5920 h1        1 MOL      0.046172
     59 H27        -5.4050   -0.9520   -3.9140 h1        1 MOL      0.046172
     60 N6         -4.7110   -3.1320   -2.9590 n         1 MOL     -0.399734
     61 C19        -4.6840   -4.4840   -2.3030 c3        1 MOL     -0.079973
     62 C20        -3.2940   -5.0490   -2.2330 c         1 MOL      0.456477
     63 O10        -3.0630   -6.0780   -1.6390 o         1 MOL     -0.458193
     64 C21        -5.6960   -5.4390   -2.8700 c3        1 MOL     -0.332180
     65 C22        -5.5390   -5.6530   -4.3870 c         1 MOL      0.841013
     66 O11        -6.4460   -6.2620   -4.9610 o         1 MOL     -0.659806
     67 O12        -4.6500   -5.1700   -5.1370 o         1 MOL     -0.659806
     68 H28        -4.7040   -3.0560   -3.9680 hn        1 MOL      0.249586
     69 H29        -4.9970   -4.3340   -1.2680 h1        1 MOL      0.146313
     70 H30        -6.6480   -4.9310   -2.7400 hc        1 MOL      0.106111
     71 H31        -5.5940   -6.4410   -2.4550 hc        1 MOL      0.106111
     72 N7         -2.2710   -4.4080   -2.8720 n         1 MOL     -0.252827
     73 C23        -0.9320   -4.9470   -3.0290 c3        1 MOL     -0.224738
     74 C24        -0.0980   -4.8280   -1.7040 c         1 MOL      0.478204
     75 O13         0.7590   -5.6600   -1.3230 o         1 MOL     -0.540998
     76 H32        -2.3720   -3.4700   -3.2280 hn        1 MOL      0.239031
     77 H33        -0.4630   -4.3960   -3.8440 h1        1 MOL      0.128120
     78 H34        -0.9870   -6.0030   -3.2870 h1        1 MOL      0.128120
     79 N8         -0.4140   -3.8420   -0.8940 n         1 MOL     -0.208977
     80 C25         0.2600   -3.5700    0.3640 c3        1 MOL     -0.013077
     81 C26         0.6260   -2.1000    0.4400 c         1 MOL      0.462233
     82 O14         0.0340   -1.2620   -0.3160 o         1 MOL     -0.497893
     83 C27        -0.6700   -3.9570    1.5800 c3        1 MOL      0.305329
     84 C28        -1.9620   -3.1670    1.8580 c3        1 MOL     -0.292266
     85 O15        -1.0210   -5.2870    1.5050 oh        1 MOL     -0.542831
     86 H35        -1.0080   -3.1150   -1.2740 hn        1 MOL      0.184191
     87 H36         1.1430   -4.2130    0.3950 h1        1 MOL      0.082580
     88 H37        -0.0320   -3.8510    2.4520 h1        1 MOL     -0.050778
     89 H38        -1.4580   -5.3900    2.3520 ho        1 MOL      0.370364
     90 H39        -2.7870   -3.4850    1.2090 hc        1 MOL      0.077449
     91 H40        -2.2210   -3.4300    2.8780 hc        1 MOL      0.077449
     92 H41        -1.7640   -2.0990    1.7590 hc        1 MOL      0.077449
     93 N9          1.5700   -1.7210    1.3150 n         1 MOL     -0.433946
     94 C29         2.2150   -0.3830    1.3060 c3        1 MOL     -0.135977
     95 C30         3.6730   -0.4510    0.8660 c         1 MOL      0.838271
     96 O16         4.1170    0.2560   -0.0190 o         1 MOL     -0.587825
     97 C31         2.1250    0.3360    2.7030 c3        1 MOL      0.194502
     98 C32         0.7600    0.5090    3.3280 c3        1 MOL     -0.007734
     99 C33         2.6310    1.8100    2.5630 c3        1 MOL     -0.429749
    100 C34         0.6270    0.7830    4.8410 c3        1 MOL     -0.210274
    101 H42         1.9320   -2.4570    1.9150 hn        1 MOL      0.261749
    102 H43         1.6050    0.1930    0.6060 h1        1 MOL      0.100666
    103 H44         2.8380   -0.1630    3.3670 hc        1 MOL     -0.003398
    104 H45         0.2160   -0.4340    3.3400 hc        1 MOL      0.026467
    105 H46         0.1990    1.2350    2.7510 hc        1 MOL      0.026467
    106 H47         1.9220    2.4240    2.0040 hc        1 MOL      0.109693
    107 H48         2.7360    2.1880    3.5850 hc        1 MOL      0.109693
    108 H49         3.6160    1.8610    2.1030 hc        1 MOL      0.109693
    109 H50         0.7440    1.8230    5.1350 hc        1 MOL      0.050850
    110 H51        -0.3370    0.4350    5.2080 hc        1 MOL      0.050850
    111 H52         1.3980    0.2470    5.3920 hc        1 MOL      0.050850
    112 N10         4.4580   -1.3320    1.4760 n         1 MOL     -0.573405
    113 C35         5.7580   -1.8230    1.0440 c3        1 MOL     -0.112596
    114 C36         6.7680   -1.6620    2.1780 c         1 MOL      0.684890
    115 O17         6.3880   -1.7300    3.4040 o         1 MOL     -0.553620
    116 C37         5.7490   -3.2610    0.5900 c3        1 MOL      0.321366
    117 C38         5.2850   -4.4020    1.5430 c3        1 MOL     -0.436923
    118 O18         4.9530   -3.2550   -0.5070 oh        1 MOL     -0.597647
    119 H53         3.9560   -1.9020    2.1400 hn        1 MOL      0.295292
    120 H54         6.0510   -1.2860    0.1320 h1        1 MOL      0.158899
    121 H55         6.7490   -3.5080    0.2350 h1        1 MOL      0.009676
    122 H56         4.9510   -4.0910   -0.9710 ho        1 MOL      0.415963
    123 H57         5.6630   -4.3200    2.5630 hc        1 MOL      0.119525
    124 H58         4.1970   -4.4620    1.5600 hc        1 MOL      0.119525
    125 H59         5.6810   -5.3230    1.1060 hc        1 MOL      0.119525
    126 N11         8.0600   -1.3780    1.8800 n         1 MOL     -0.583591
    127 C39         9.1480   -1.2390    2.9510 c3        1 MOL     -0.082267
    128 C40        10.2960   -0.3060    2.5150 c         1 MOL      0.645306
    129 O19        10.9200    0.4050    3.3430 o         1 MOL     -0.561825
    130 C41         9.8770   -2.6360    3.1560 c3        1 MOL      0.232635
    131 C42        11.0500   -2.7960    4.1130 c3        1 MOL     -0.329317
    132 O20        10.2330   -3.2190    1.9220 oh        1 MOL     -0.636163
    133 H60         8.2590   -1.6160    0.9160 hn        1 MOL      0.301970
    134 H61         8.7410   -0.8060    3.8710 h1        1 MOL      0.159413
    135 H62         9.1730   -3.3890    3.5210 h1        1 MOL      0.045796
    136 H63        10.1550   -4.1730    2.0170 ho        1 MOL      0.416389
    137 H64        11.4120   -3.8090    4.2800 hc        1 MOL      0.095610
    138 H65        11.9200   -2.1980    3.8500 hc        1 MOL      0.095610
    139 H66        10.6570   -2.4670    5.0770 hc        1 MOL      0.095610
    140 N12        10.5410   -0.2850    1.1770 n         1 MOL     -0.412007
    141 C43        11.4410    0.6650    0.4950 c3        1 MOL     -0.060971
    142 C44        10.9030    0.9840   -0.8840 c         1 MOL      0.578952
    143 O21        10.5050    0.0540   -1.6040 o         1 MOL     -0.514771
    144 C45        12.8030   -0.0960    0.3610 c3        1 MOL     -0.110808
    145 C46        14.0510    0.9510    0.4660 c3        1 MOL     -0.006772
    146 C47        15.4030    0.2110    0.4820 c3        1 MOL      0.016511
    147 C48        16.5860    1.1040    0.8950 c3        1 MOL      0.091040
    148 N13        17.8500    0.3410    0.7030 n4        1 MOL     -0.294224
    149 H67         9.9100   -0.6930    0.5000 hn        1 MOL      0.270377
    150 H68        11.6090    1.5980    1.0460 h1        1 MOL      0.084722
    151 H69        12.9700   -0.5320   -0.6210 hc        1 MOL      0.081610
    152 H70        13.0050   -0.8050    1.1570 hc        1 MOL      0.081610
    153 H71        14.0090    1.4610    1.4210 hc        1 MOL      0.009331
    154 H72        14.1830    1.6990   -0.3120 hc        1 MOL      0.009331
    155 H73        15.6220   -0.2070   -0.5050 hc        1 MOL      0.011582
    156 H74        15.2750   -0.6320    1.1630 hc        1 MOL      0.011582
    157 H75        16.4990    1.4730    1.9190 hx        1 MOL      0.067799
    158 H76        16.6940    1.9680    0.2370 hx        1 MOL      0.067799
    159 H77        17.8760   -0.4010    1.3860 hn        1 MOL      0.265293
    160 H78        18.0110    0.0440   -0.2440 hn        1 MOL      0.265293
    161 H79        18.5540    0.9960    1.0190 hn        1 MOL      0.265293
    162 N14        10.9650    2.2480   -1.3020 n         1 MOL     -0.428477
    163 C49        10.4450    2.6520   -2.6180 c3        1 MOL      0.176734
    164 C50         8.8440    2.7470   -2.6910 c         1 MOL      0.337248
    165 O22         8.2750    2.0980   -3.6050 o         1 MOL     -0.508014
    166 C51        11.1480    4.0070   -2.9720 c3        1 MOL     -0.035039
    167 C52        12.6590    3.8000   -2.9640 c3        1 MOL     -0.336350
    168 C53        13.2650    5.1610   -2.7960 c         1 MOL      0.721051
    169 O23        14.2730    5.3360   -2.1010 o         1 MOL     -0.678519
    170 O24        12.8980    6.1150   -3.5190 o         1 MOL     -0.678519
    171 H80        11.4470    2.8780   -0.6810 hn        1 MOL      0.258115
    172 H81        10.8340    1.9710   -3.3820 h1        1 MOL      0.052958
    173 H82        10.9070    4.6970   -2.1680 hc        1 MOL      0.069962
    174 H83        10.7870    4.5090   -3.8750 hc        1 MOL      0.069962
    175 H84        12.9730    3.4360   -3.9390 hc        1 MOL      0.086066
    176 H85        13.1120    3.1030   -2.2540 hc        1 MOL      0.086066
    177 N15         8.0560    3.5290   -1.8960 n         1 MOL     -0.354875
    178 C54         8.4670    4.4660   -0.7720 c3        1 MOL     -0.112668
    179 H86         7.9630    5.4250   -0.8960 h1        1 MOL      0.071011
    180 H87         8.1850    4.0300    0.1870 h1        1 MOL      0.071011
    181 H88         9.5460    4.6160   -0.7990 h1        1 MOL      0.071011
    182 H89         7.0560    3.4530   -2.0330 hn        1 MOL      0.311471
    183 Ca1        -6.1710    4.1550    0.2980 Ca        1 MOL      1.783412
    184 O25        -6.6380    4.8380    2.8940 oh        1 MOL     -0.895363
    185 H90        -7.1210    5.5770    3.2690 ho        1 MOL      0.440886
    186 H91        -6.3300    4.3470    3.6550 ho        1 MOL      0.440886
    187 O26        -4.9260    2.6250    2.3510 oh        1 MOL     -0.895363
    188 H92        -4.0240    2.3190    2.4290 ho        1 MOL      0.440886
    189 H93        -5.1560    2.9190    3.2400 ho        1 MOL      0.440886
    190 O27        -5.6350    4.8150   -2.5210 oh        1 MOL     -0.895363
    191 H94        -6.4940    4.5300   -2.8280 ho        1 MOL      0.440886
    192 H95        -5.0170    4.3710   -3.1030 ho        1 MOL      0.440886
    193 O28        -3.8630    3.3510   -0.3930 oh        1 MOL     -0.895363
    194 H96        -2.9580    3.6650   -0.4590 ho        1 MOL      0.440886
    195 H97        -3.8460    2.4920   -0.8230 ho        1 MOL      0.440886
@<TRIPOS>BOND
     1    1    2 1   
     2    1    4 1   
     3    1    5 1   
     4    1    6 1   
     5    2    3 2   
     6    2    7 1   
     7    7    8 1   
     8    7   15 1   
     9    8    9 1   
    10    8   11 1   
    11    8   16 1   
    12    9   10 2   
    13    9   19 1   
    14   11   12 1   
    15   11   17 1   
    16   11   18 1   
    17   12   13 1   
    18   12   14 1   
    19   19   20 1   
    20   19   28 1   
    21   20   21 1   
    22   20   23 1   
    23   20   29 1   
    24   21   22 2   
    25   21   41 1   
    26   23   24 1   
    27   23   30 1   
    28   23   31 1   
    29   24   25 1   
    30   24   32 1   
    31   24   33 1   
    32   25   26 1   
    33   25   34 1   
    34   25   35 1   
    35   26   27 1   
    36   26   36 1   
    37   26   37 1   
    38   27   38 1   
    39   27   39 1   
    40   27   40 1   
    41   41   42 1   
    42   41   49 1   
    43   42   43 1   
    44   42   45 1   
    45   42   50 1   
    46   43   44 2   
    47   43   53 1   
    48   45   46 1   
    49   45   51 1   
    50   45   52 1   
    51   46   47 1   
    52   46   48 1   
    53   53   54 1   
    54   53   57 1   
    55   54   55 1   
    56   54   58 1   
    57   54   59 1   
    58   55   56 2   
    59   55   60 1   
    60   60   61 1   
    61   60   68 1   
    62   61   62 1   
    63   61   64 1   
    64   61   69 1   
    65   62   63 2   
    66   62   72 1   
    67   64   65 1   
    68   64   70 1   
    69   64   71 1   
    70   65   66 1   
    71   65   67 1   
    72   72   73 1   
    73   72   76 1   
    74   73   74 1   
    75   73   77 1   
    76   73   78 1   
    77   74   75 2   
    78   74   79 1   
    79   79   80 1   
    80   79   86 1   
    81   80   81 1   
    82   80   83 1   
    83   80   87 1   
    84   81   82 2   
    85   81   93 1   
    86   83   84 1   
    87   83   85 1   
    88   83   88 1   
    89   84   90 1   
    90   84   91 1   
    91   84   92 1   
    92   85   89 1   
    93   93   94 1   
    94   93  101 1   
    95   94   95 1   
    96   94   97 1   
    97   94  102 1   
    98   95   96 2   
    99   95  112 1   
   100   97   98 1   
   101   97   99 1   
   102   97  103 1   
   103   98  100 1   
   104   98  104 1   
   105   98  105 1   
   106   99  106 1   
   107   99  107 1   
   108   99  108 1   
   109  100  109 1   
   110  100  110 1   
   111  100  111 1   
   112  112  113 1   
   113  112  119 1   
   114  113  114 1   
   115  113  116 1   
   116  113  120 1   
   117  114  115 2   
   118  114  126 1   
   119  116  117 1   
   120  116  118 1   
   121  116  121 1   
   122  117  123 1   
   123  117  124 1   
   124  117  125 1   
   125  118  122 1   
   126  126  127 1   
   127  126  133 1   
   128  127  128 1   
   129  127  130 1   
   130  127  134 1   
   131  128  129 2   
   132  128  140 1   
   133  130  131 1   
   134  130  132 1   
   135  130  135 1   
   136  131  137 1   
   137  131  138 1   
   138  131  139 1   
   139  132  136 1   
   140  140  141 1   
   141  140  149 1   
   142  141  142 1   
   143  141  144 1   
   144  141  150 1   
   145  142  143 2   
   146  142  162 1   
   147  144  145 1   
   148  144  151 1   
   149  144  152 1   
   150  145  146 1   
   151  145  153 1   
   152  145  154 1   
   153  146  147 1   
   154  146  155 1   
   155  146  156 1   
   156  147  148 1   
   157  147  157 1   
   158  147  158 1   
   159  148  159 1   
   160  148  160 1   
   161  148  161 1   
   162  162  163 1   
   163  162  171 1   
   164  163  164 1   
   165  163  166 1   
   166  163  172 1   
   167  164  165 2   
   168  164  177 1   
   169  166  167 1   
   170  166  173 1   
   171  166  174 1   
   172  167  168 1   
   173  167  175 1   
   174  167  176 1   
   175  168  169 1   
   176  168  170 1   
   177  177  178 1   
   178  177  182 1   
   179  178  179 1   
   180  178  180 1   
   181  178  181 1   
   182  184  185 1   
   183  184  186 1   
   184  187  188 1   
   185  187  189 1   
   186  190  191 1   
   187  190  192 1   
   188  193  194 1   
   189  193  195 1   
@<TRIPOS>SUBSTRUCTURE
     1 MOL         1 TEMP              0 ****  ****    0 ROOT
