@<TRIPOS>MOLECULE
MOL
  187   181     1     0     0
SMALL
resp


@<TRIPOS>ATOM
      1 C1          2.2390   -2.5440    4.3490 c3        1 MOL     -0.424467
      2 C2          3.4260   -1.5660    4.3110 c         1 MOL      0.778513
      3 O1          3.2280   -0.3600    4.3210 o         1 MOL     -0.624589
      4 H1          1.9610   -2.7370    5.3840 hc        1 MOL      0.104063
      5 H2          1.3920   -2.1080    3.8210 hc        1 MOL      0.104063
      6 H3          2.5240   -3.4800    3.8690 hc        1 MOL      0.104063
      7 N1          4.6960   -1.9470    4.1830 n         1 MOL     -0.713922
      8 C3          5.8920   -1.1370    4.4410 c3        1 MOL      0.423688
      9 C4          6.5320   -0.4870    3.1970 c         1 MOL      0.435162
     10 O2          7.7700   -0.4710    3.1190 o         1 MOL     -0.500716
     11 C5          6.8140   -1.9800    5.3610 c3        1 MOL     -0.253004
     12 C6          8.0390   -1.2700    5.8590 c         1 MOL      0.737055
     13 O3          7.9900   -0.0800    6.2100 o         1 MOL     -0.708962
     14 O4          9.0550   -1.9530    5.9810 o         1 MOL     -0.708962
     15 H4          4.8670   -2.9420    4.1020 hn        1 MOL      0.298178
     16 H5          5.7040   -0.2850    5.1020 h1        1 MOL     -0.023511
     17 H6          7.1000   -2.8950    4.8470 hc        1 MOL      0.024043
     18 H7          6.2460   -2.3770    6.2060 hc        1 MOL      0.024043
     19 N2          5.7930   -0.2160    2.1470 n         1 MOL     -0.434580
     20 C7          6.2630    0.2110    0.7880 c3        1 MOL      0.105958
     21 C8          6.3730   -0.9910   -0.1900 c         1 MOL      0.544222
     22 O5          5.5770   -1.9030   -0.1770 o         1 MOL     -0.547831
     23 C9          5.3410    1.3090    0.2610 c3        1 MOL     -0.070566
     24 H8          4.8050   -0.4610    2.2060 hn        1 MOL      0.237775
     25 H9          7.2080    0.7450    0.8360 h1        1 MOL      0.077249
     26 H10         4.3980    0.9310   -0.1330 hc        1 MOL      0.028799
     27 H11         5.2070    1.9940    1.0940 hc        1 MOL      0.028799
     28 H12         5.8580    1.7520   -0.5930 hc        1 MOL      0.028799
     29 N3          7.3410   -0.8490   -1.1260 n         1 MOL     -0.347782
     30 C10         7.4620   -1.7810   -2.2450 c3        1 MOL     -0.033853
     31 C11         7.1090   -1.2170   -3.6180 c         1 MOL      0.514839
     32 O6          6.8670   -2.0060   -4.5470 o         1 MOL     -0.556872
     33 C12         8.8500   -2.3610   -2.3420 c3        1 MOL     -0.338045
     34 C13        10.0160   -1.4000   -2.4230 c         1 MOL      0.799661
     35 O7          9.9360   -0.2120   -2.0720 o         1 MOL     -0.740891
     36 O8         11.0560   -1.8880   -2.8530 o         1 MOL     -0.740891
     37 H13         7.9410   -0.0380   -1.1570 hn        1 MOL      0.192374
     38 H14         6.7690   -2.5960   -2.0570 h1        1 MOL      0.098841
     39 H15         8.9670   -2.8430   -3.3050 hc        1 MOL      0.085176
     40 H16         9.0300   -3.0700   -1.5290 hc        1 MOL      0.085176
     41 N4          7.1090    0.0700   -3.6910 n         1 MOL     -0.230233
     42 C14         6.6920    0.7620   -4.9510 c3        1 MOL     -0.208241
     43 C15         5.3700    1.4640   -4.7690 c         1 MOL      0.704493
     44 O9          4.8330    1.8510   -5.7930 o         1 MOL     -0.622905
     45 H17         7.2370    0.6480   -2.8710 hn        1 MOL      0.257345
     46 H18         6.6080    0.0980   -5.8160 h1        1 MOL      0.113048
     47 H19         7.4290    1.5510   -5.0740 h1        1 MOL      0.113048
     48 N5          4.8260    1.6160   -3.5460 n         1 MOL     -0.426889
     49 C16         3.4910    2.1680   -3.2500 c3        1 MOL      0.065839
     50 C17         3.6190    3.2930   -2.2120 c         1 MOL      0.479340
     51 O10         4.7460    3.6820   -1.8690 o         1 MOL     -0.512174
     52 C18         2.5200    1.0260   -2.8590 c3        1 MOL     -0.152431
     53 C19         2.6450   -0.1530   -3.7800 c         1 MOL      0.629149
     54 N6          1.8520   -0.1460   -4.7870 n         1 MOL     -0.692455
     55 O11         3.3960   -1.1220   -3.5910 o         1 MOL     -0.587588
     56 H20         5.4370    1.1620   -2.8960 hn        1 MOL      0.180115
     57 H21         2.9530    2.5470   -4.1210 h1        1 MOL      0.065949
     58 H22         1.4740    1.3240   -2.7650 hc        1 MOL      0.053617
     59 H23         3.0210    0.7170   -1.9400 hc        1 MOL      0.053617
     60 H24         1.1010    0.5320   -4.8010 hn        1 MOL      0.334174
     61 H25         1.9150   -0.9410   -5.4060 hn        1 MOL      0.334174
     62 N7          2.5040    3.8930   -1.8580 n         1 MOL     -0.330546
     63 C20         2.5300    5.0910   -1.0070 c3        1 MOL     -0.063731
     64 C21         1.1930    5.7680   -0.8820 c         1 MOL      0.511451
     65 O12         0.3140    5.5160   -1.7190 o         1 MOL     -0.495834
     66 H26         1.5730    3.7900   -2.2450 hn        1 MOL      0.250764
     67 H27         3.3350    5.7590   -1.3060 h1        1 MOL      0.074288
     68 H28         2.7330    4.7790    0.0250 h1        1 MOL      0.074288
     69 N8          1.0000    6.4890    0.1950 n         1 MOL     -0.275666
     70 C22        -0.2700    7.1710    0.5590 c3        1 MOL     -0.524093
     71 C23        -1.4360    6.2570    0.9800 c         1 MOL      0.584430
     72 O13        -2.5640    6.7400    0.8890 o         1 MOL     -0.545805
     73 C24        -0.1130    8.3260    1.5220 c3        1 MOL      0.546796
     74 C25         0.5330    8.0250    2.9180 c3        1 MOL     -0.321190
     75 O14         0.7410    9.3550    0.9710 oh        1 MOL     -0.656114
     76 H29         1.8360    6.8300    0.6390 hn        1 MOL      0.227149
     77 H30        -0.6700    7.6150   -0.3470 h1        1 MOL      0.206298
     78 H31        -1.0700    8.8270    1.7100 h1        1 MOL      0.047135
     79 H32         1.5910    8.9290    0.8450 ho        1 MOL      0.394100
     80 H33         1.2420    8.8080    3.1870 hc        1 MOL      0.076860
     81 H34        -0.3030    7.8570    3.5910 hc        1 MOL      0.076860
     82 H35         1.0450    7.0690    2.8780 hc        1 MOL      0.076860
     83 N9         -1.1090    5.0500    1.4980 n         1 MOL     -0.149782
     84 C26        -2.0640    3.9870    1.7720 c3        1 MOL     -0.218046
     85 C27        -1.7360    2.7500    0.9890 c         1 MOL      0.655446
     86 O15        -0.6810    2.5960    0.4060 o         1 MOL     -0.529462
     87 C28        -2.2110    3.7190    3.2690 c3        1 MOL      0.044257
     88 C29        -0.9600    3.6820    4.1670 c3        1 MOL     -0.141693
     89 C30        -3.0590    4.9600    3.7760 c3        1 MOL     -0.271559
     90 C31        -0.1400    2.3600    3.9010 c3        1 MOL     -0.143164
     91 H36        -0.1400    4.7820    1.4650 hn        1 MOL      0.214075
     92 H37        -2.9810    4.4450    1.3850 h1        1 MOL      0.095850
     93 H38        -2.8090    2.8140    3.4090 hc        1 MOL      0.060521
     94 H39        -1.3680    3.6400    5.1740 hc        1 MOL      0.054774
     95 H40        -0.3180    4.5560    4.1010 hc        1 MOL      0.054774
     96 H41        -4.0180    5.0170    3.2580 hc        1 MOL      0.069880
     97 H42        -3.3720    4.9390    4.8160 hc        1 MOL      0.069880
     98 H43        -2.4350    5.8390    3.6440 hc        1 MOL      0.069880
     99 H44         0.7410    2.3710    4.5440 hc        1 MOL      0.067336
    100 H45        -0.8180    1.5510    4.1820 hc        1 MOL      0.067336
    101 H46         0.2110    2.1530    2.8880 hc        1 MOL      0.067336
    102 N10        -2.7070    1.8660    0.9730 n         1 MOL     -0.550406
    103 C32        -2.7050    0.6470    0.1450 c3        1 MOL      0.008345
    104 C33        -4.0430    0.1520   -0.3760 c         1 MOL      0.617379
    105 O16        -4.4670   -1.0170   -0.2060 o         1 MOL     -0.499941
    106 C34        -1.9170   -0.4470    0.8890 c3        1 MOL      0.009390
    107 C35        -1.1520   -1.4220   -0.0310 c         1 MOL      0.838504
    108 O17        -0.5140   -2.3790    0.4360 o         1 MOL     -0.804611
    109 O18        -0.9870   -1.2090   -1.2290 o         1 MOL     -0.804611
    110 H47        -3.5660    2.0550    1.4720 hn        1 MOL      0.314882
    111 H48        -2.1000    0.9830   -0.6990 h1        1 MOL      0.084796
    112 H49        -2.5830   -0.9670    1.5800 hc        1 MOL     -0.003502
    113 H50        -1.1960   -0.0000    1.5690 hc        1 MOL     -0.003502
    114 N11        -4.7100    1.0840   -1.0700 n         1 MOL     -0.614811
    115 C36        -5.9870    0.7070   -1.6770 c3        1 MOL      0.407497
    116 C37        -7.0470    0.4370   -0.5700 c         1 MOL      0.141976
    117 O19        -7.2300    1.2930    0.2610 o         1 MOL     -0.481119
    118 C38        -6.3270    1.8240   -2.7610 c3        1 MOL     -0.366172
    119 C39        -7.4560    1.4950   -3.7380 ca        1 MOL      0.171276
    120 C40        -7.0520    1.2780   -5.0840 ca        1 MOL     -0.188051
    121 C41        -8.7850    1.5080   -3.3400 ca        1 MOL     -0.188051
    122 C42        -8.0720    1.1140   -6.0430 ca        1 MOL     -0.123095
    123 C43        -9.8080    1.3080   -4.2500 ca        1 MOL     -0.123095
    124 C44        -9.4800    1.2420   -5.6070 ca        1 MOL     -0.144926
    125 H51        -4.2660    1.9740   -1.2400 hn        1 MOL      0.331630
    126 H52        -5.8480   -0.2570   -2.1810 h1        1 MOL     -0.033309
    127 H53        -5.4400    2.0950   -3.3470 hc        1 MOL      0.128145
    128 H54        -6.6150    2.7030   -2.1990 hc        1 MOL      0.128145
    129 H55        -6.0050    1.2330   -5.3500 ha        1 MOL      0.126831
    130 H56        -8.9980    1.3870   -2.2850 ha        1 MOL      0.126831
    131 H57        -7.9180    1.0620   -7.1090 ha        1 MOL      0.115774
    132 H58       -10.8350    1.3150   -3.9250 ha        1 MOL      0.115774
    133 H59       -10.3460    1.1300   -6.2470 ha        1 MOL      0.103488
    134 N12        -7.6810   -0.7820   -0.5260 n         1 MOL      0.189734
    135 C45        -8.5700   -1.1120    0.5820 c3        1 MOL     -0.087083
    136 C46        -7.8300   -1.5990    1.8910 c         1 MOL      0.394129
    137 O20        -8.4890   -1.7220    2.9020 o         1 MOL     -0.539869
    138 C47        -9.5600   -2.0790    0.0150 c3        1 MOL      0.037422
    139 C48        -8.7580   -2.7910   -1.1400 c3        1 MOL     -0.116992
    140 C49        -7.7720   -1.7550   -1.5860 c3        1 MOL     -0.125864
    141 H60        -9.2000   -0.2760    0.8870 h1        1 MOL      0.052828
    142 H61       -10.0650   -2.7950    0.6590 hc        1 MOL      0.021792
    143 H62       -10.3070   -1.5150   -0.5550 hc        1 MOL      0.021792
    144 H63        -8.1220   -3.5490   -0.6930 hc        1 MOL      0.045297
    145 H64        -9.4780   -3.1230   -1.8840 hc        1 MOL      0.045297
    146 H65        -6.8430   -2.2680   -1.8030 h1        1 MOL      0.066559
    147 H66        -8.0560   -1.1670   -2.4620 h1        1 MOL      0.066559
    148 N13        -6.5620   -1.9340    1.8100 n         1 MOL      0.076170
    149 C50        -5.8790   -2.9020    2.6760 c3        1 MOL     -0.398737
    150 C51        -5.7090   -2.2970    4.1650 c         1 MOL      0.443896
    151 O21        -5.5070   -3.0490    5.1360 o         1 MOL     -0.527443
    152 C52        -4.5710   -3.4290    2.1450 c3        1 MOL      0.146789
    153 C53        -4.6130   -4.1190    0.7590 c3        1 MOL     -0.285558
    154 C54        -3.2100   -4.4260    0.2630 c         1 MOL      0.876135
    155 O22        -2.2650   -4.6080    1.0530 o         1 MOL     -0.829254
    156 O23        -2.9340   -4.4880   -0.9560 o         1 MOL     -0.829254
    157 H67        -6.0650   -1.6890    0.9650 hn        1 MOL      0.048388
    158 H68        -6.5600   -3.7570    2.7980 h1        1 MOL      0.161137
    159 H69        -4.1020   -4.0440    2.9040 hc        1 MOL      0.045174
    160 H70        -3.8110   -2.6610    2.0010 hc        1 MOL      0.045174
    161 H71        -5.2320   -3.5840    0.0490 hc        1 MOL      0.056457
    162 H72        -5.0450   -5.1150    0.9180 hc        1 MOL      0.056457
    163 N14        -5.8380   -0.9800    4.3010 n         1 MOL     -0.163620
    164 C55        -5.4990   -0.1980    5.4740 c3        1 MOL     -0.105538
    165 H73        -5.0270   -0.8430    6.2150 h1        1 MOL      0.066552
    166 H74        -4.8100    0.5970    5.1940 h1        1 MOL      0.066552
    167 H75        -6.4050    0.2370    5.8950 h1        1 MOL      0.066552
    168 H76        -6.0060   -0.4740    3.4380 hn        1 MOL      0.178743
    169 Ca1        -0.3980   -4.7450   -0.7330 Ca        1 MOL      1.844273
    170 O24         2.0950   -4.2310   -0.4230 oh        1 MOL     -0.843964
    171 H77         2.8560   -4.1250   -0.9930 ho        1 MOL      0.416471
    172 H78         2.0710   -3.4320    0.0950 ho        1 MOL      0.416471
    173 O25        -0.9970   -5.5750   -3.3860 oh        1 MOL     -0.843964
    174 H79        -1.4780   -4.9380   -3.9070 ho        1 MOL      0.416471
    175 H80        -0.9640   -6.3680   -3.9240 ho        1 MOL      0.416471
    176 O26         0.4540   -2.9120   -2.6240 oh        1 MOL     -0.843964
    177 H81         0.0240   -2.1480   -2.2450 ho        1 MOL      0.416471
    178 H82         1.1770   -2.5500   -3.1390 ho        1 MOL      0.416471
    179 O27         0.3750   -5.8230    1.5990 oh        1 MOL     -0.843964
    180 H83         0.9170   -6.4900    2.0250 ho        1 MOL      0.416471
    181 H84        -0.1280   -5.4330    2.3130 ho        1 MOL      0.416471
    182 O28        -1.6600   -7.3700   -0.4040 oh        1 MOL     -0.843964
    183 H85        -1.0680   -8.1250   -0.4070 ho        1 MOL      0.416471
    184 H86        -2.5220   -7.7410   -0.1860 ho        1 MOL      0.416471
    185 O29         1.4200   -6.8580   -1.5200 oh        1 MOL     -0.843964
    186 H87         2.3400   -6.6460   -1.4040 ho        1 MOL      0.416471
    187 H88         1.4290   -7.7170   -1.9580 ho        1 MOL      0.416471
@<TRIPOS>BOND
     1    1    2 1   
     2    1    4 1   
     3    1    5 1   
     4    1    6 1   
     5    2    3 2   
     6    2    7 1   
     7    7    8 1   
     8    7   15 1   
     9    8    9 1   
    10    8   11 1   
    11    8   16 1   
    12    9   10 2   
    13    9   19 1   
    14   11   12 1   
    15   11   17 1   
    16   11   18 1   
    17   12   13 1   
    18   12   14 1   
    19   19   20 1   
    20   19   24 1   
    21   20   21 1   
    22   20   23 1   
    23   20   25 1   
    24   21   22 2   
    25   21   29 1   
    26   23   26 1   
    27   23   27 1   
    28   23   28 1   
    29   29   30 1   
    30   29   37 1   
    31   30   31 1   
    32   30   33 1   
    33   30   38 1   
    34   31   32 2   
    35   31   41 1   
    36   33   34 1   
    37   33   39 1   
    38   33   40 1   
    39   34   35 1   
    40   34   36 1   
    41   41   42 1   
    42   41   45 1   
    43   42   43 1   
    44   42   46 1   
    45   42   47 1   
    46   43   44 2   
    47   43   48 1   
    48   48   49 1   
    49   48   56 1   
    50   49   50 1   
    51   49   52 1   
    52   49   57 1   
    53   50   51 2   
    54   50   62 1   
    55   52   53 1   
    56   52   58 1   
    57   52   59 1   
    58   53   54 1   
    59   53   55 2   
    60   54   60 1   
    61   54   61 1   
    62   62   63 1   
    63   62   66 1   
    64   63   64 1   
    65   63   67 1   
    66   63   68 1   
    67   64   65 2   
    68   64   69 1   
    69   69   70 1   
    70   69   76 1   
    71   70   71 1   
    72   70   73 1   
    73   70   77 1   
    74   71   72 2   
    75   71   83 1   
    76   73   74 1   
    77   73   75 1   
    78   73   78 1   
    79   74   80 1   
    80   74   81 1   
    81   74   82 1   
    82   75   79 1   
    83   83   84 1   
    84   83   91 1   
    85   84   85 1   
    86   84   87 1   
    87   84   92 1   
    88   85   86 2   
    89   85  102 1   
    90   87   88 1   
    91   87   89 1   
    92   87   93 1   
    93   88   90 1   
    94   88   94 1   
    95   88   95 1   
    96   89   96 1   
    97   89   97 1   
    98   89   98 1   
    99   90   99 1   
   100   90  100 1   
   101   90  101 1   
   102  102  103 1   
   103  102  110 1   
   104  103  104 1   
   105  103  106 1   
   106  103  111 1   
   107  104  105 2   
   108  104  114 1   
   109  106  107 1   
   110  106  112 1   
   111  106  113 1   
   112  107  108 1   
   113  107  109 1   
   114  114  115 1   
   115  114  125 1   
   116  115  116 1   
   117  115  118 1   
   118  115  126 1   
   119  116  117 2   
   120  116  134 1   
   121  118  119 1   
   122  118  127 1   
   123  118  128 1   
   124  119  120 ar  
   125  119  121 ar  
   126  120  122 ar  
   127  120  129 1   
   128  121  123 ar  
   129  121  130 1   
   130  122  124 ar  
   131  122  131 1   
   132  123  124 ar  
   133  123  132 1   
   134  124  133 1   
   135  134  135 1   
   136  134  140 1   
   137  135  136 1   
   138  135  138 1   
   139  135  141 1   
   140  136  137 2   
   141  136  148 1   
   142  138  139 1   
   143  138  142 1   
   144  138  143 1   
   145  139  140 1   
   146  139  144 1   
   147  139  145 1   
   148  140  146 1   
   149  140  147 1   
   150  148  149 1   
   151  148  157 1   
   152  149  150 1   
   153  149  152 1   
   154  149  158 1   
   155  150  151 2   
   156  150  163 1   
   157  152  153 1   
   158  152  159 1   
   159  152  160 1   
   160  153  154 1   
   161  153  161 1   
   162  153  162 1   
   163  154  155 1   
   164  154  156 1   
   165  163  164 1   
   166  163  168 1   
   167  164  165 1   
   168  164  166 1   
   169  164  167 1   
   170  170  171 1   
   171  170  172 1   
   172  173  174 1   
   173  173  175 1   
   174  176  177 1   
   175  176  178 1   
   176  179  180 1   
   177  179  181 1   
   178  182  183 1   
   179  182  184 1   
   180  185  186 1   
   181  185  187 1   
@<TRIPOS>SUBSTRUCTURE
     1 MOL         1 TEMP              0 ****  ****    0 ROOT
