@<TRIPOS>MOLECULE
MOL
  189   185     1     0     0
SMALL
resp


@<TRIPOS>ATOM
      1 C1         11.4860    4.4680   -4.7450 c3        1 MOL     -0.325388
      2 C2         11.3420    3.2750   -3.7510 c         1 MOL      0.499160
      3 O1         12.1980    2.3880   -3.7100 o         1 MOL     -0.544723
      4 H1         11.8500    4.1000   -5.7030 hc        1 MOL      0.100120
      5 H2         10.5150    4.9450   -4.8840 hc        1 MOL      0.100120
      6 H3         12.1930    5.1940   -4.3430 hc        1 MOL      0.100120
      7 N1         10.4640    3.2930   -2.7100 n         1 MOL     -0.047788
      8 C3         10.3790    2.2390   -1.7020 c3        1 MOL     -0.386156
      9 C4          8.9150    1.7420   -1.5240 c         1 MOL      0.470991
     10 O2          7.9900    2.5510   -1.5470 o         1 MOL     -0.539903
     11 C5         10.8720    2.8380   -0.3100 c3        1 MOL     -0.207331
     12 C6         10.3530    4.2650    0.1170 c         1 MOL      0.810637
     13 O3          9.5000    4.8610   -0.4970 o         1 MOL     -0.726676
     14 O4         10.9900    4.8040    1.0550 o         1 MOL     -0.726676
     15 H4          9.8410    4.0860   -2.6300 hn        1 MOL      0.062096
     16 H5         11.1440    1.4840   -1.8960 h1        1 MOL      0.179365
     17 H6         11.9480    2.9410   -0.4820 hc        1 MOL      0.107924
     18 H7         10.6730    2.2250    0.5670 hc        1 MOL      0.107924
     19 N2          8.7980    0.3950   -1.3810 n         1 MOL     -0.393094
     20 C7          7.5490   -0.3820   -1.2370 c3        1 MOL     -0.009306
     21 C8          7.0500   -0.6560    0.1970 c         1 MOL      0.638686
     22 O5          6.6150   -1.7240    0.5500 o         1 MOL     -0.494584
     23 C9          7.6540   -1.7770   -2.0210 c3        1 MOL      0.005602
     24 C10         6.3270   -2.0290   -2.6710 c3        1 MOL     -0.187157
     25 C11         6.3090   -3.5020   -2.9010 c3        1 MOL      0.098956
     26 C12         5.0680   -4.1200   -3.5960 c3        1 MOL     -0.046944
     27 N3          4.9110   -3.5590   -4.9420 n4        1 MOL     -0.462574
     28 H8          9.6850   -0.0940   -1.3640 hn        1 MOL      0.294998
     29 H9          6.6960    0.1350   -1.6590 h1        1 MOL      0.118984
     30 H10         8.0160   -2.5680   -1.3610 hc        1 MOL      0.025771
     31 H11         8.4410   -1.6470   -2.7630 hc        1 MOL      0.025771
     32 H12         6.1930   -1.5370   -3.6270 hc        1 MOL      0.058096
     33 H13         5.5060   -1.7180   -2.0130 hc        1 MOL      0.058096
     34 H14         6.4130   -4.0890   -1.9880 hc        1 MOL      0.018930
     35 H15         7.1660   -3.7370   -3.5390 hc        1 MOL      0.018930
     36 H16         4.2350   -3.9430   -2.9220 hx        1 MOL      0.115733
     37 H17         5.2060   -5.1920   -3.7190 hx        1 MOL      0.115733
     38 H18         4.8270   -2.5690   -5.1100 hn        1 MOL      0.347305
     39 H19         5.7550   -3.8420   -5.4150 hn        1 MOL      0.347305
     40 H20         4.0640   -3.8830   -5.3910 hn        1 MOL      0.347305
     41 N4          7.1180    0.4120    1.0450 n         1 MOL     -0.684980
     42 C13         6.1730    0.4700    2.2420 c3        1 MOL      0.316547
     43 C14         4.7170    0.4560    1.8290 c         1 MOL      0.530460
     44 O6          4.4150    1.0920    0.8270 o         1 MOL     -0.656377
     45 C15         6.5070    1.6450    3.2020 c3        1 MOL     -0.128113
     46 C16         6.7670    2.9850    2.5640 c         1 MOL      0.646057
     47 O7          6.7000    3.1500    1.3400 o         1 MOL     -0.701307
     48 O8          7.0860    3.9120    3.3170 o         1 MOL     -0.701307
     49 H21         7.8050    1.1270    0.8550 hn        1 MOL      0.363309
     50 H22         6.2730   -0.4230    2.8630 h1        1 MOL     -0.038064
     51 H23         7.4060    1.3750    3.7650 hc        1 MOL      0.073203
     52 H24         5.6690    1.6700    3.8980 hc        1 MOL      0.073203
     53 N5          3.6930   -0.0770    2.5530 n         1 MOL     -0.418028
     54 C17         3.7580   -0.8000    3.8260 c3        1 MOL      0.008161
     55 C18         4.1330   -2.2220    3.7300 c         1 MOL      0.551126
     56 O9          5.3640   -2.5370    3.5770 o         1 MOL     -0.507863
     57 H25         2.7680    0.1090    2.1980 hn        1 MOL      0.316238
     58 H26         2.8120   -0.7060    4.3530 h1        1 MOL      0.039949
     59 H27         4.5220   -0.2880    4.4180 h1        1 MOL      0.039949
     60 N6          3.1750   -3.1000    3.5570 n         1 MOL     -0.546097
     61 C19         3.3680   -4.5830    3.4560 c3        1 MOL      0.029324
     62 C20         2.3570   -5.0790    2.3740 c         1 MOL      0.649404
     63 O10         1.1150   -4.7830    2.4210 o         1 MOL     -0.545937
     64 C21         3.0210   -5.1010    4.8640 c3        1 MOL     -0.046133
     65 C22         3.2200   -6.6120    5.1240 c         1 MOL      0.663507
     66 O11         3.5130   -7.3840    4.1770 o         1 MOL     -0.688894
     67 O12         2.9530   -7.0410    6.2800 o         1 MOL     -0.688894
     68 H28         2.2160   -2.8050    3.4850 hn        1 MOL      0.313834
     69 H29         4.3720   -4.8970    3.2000 h1        1 MOL      0.049957
     70 H30         1.9760   -4.8720    5.0820 hc        1 MOL      0.015904
     71 H31         3.6450   -4.6390    5.6270 hc        1 MOL      0.015904
     72 N7          2.8610   -5.8490    1.4310 n         1 MOL     -0.480604
     73 C23         2.0600   -6.6090    0.4900 c3        1 MOL     -0.223046
     74 C24         1.4010   -5.8040   -0.6390 c         1 MOL      0.500390
     75 O13         1.1110   -6.3970   -1.6910 o         1 MOL     -0.576790
     76 H32         3.8150   -6.1790    1.4710 hn        1 MOL      0.319158
     77 H33         1.2820   -7.1080    1.0740 h1        1 MOL      0.165722
     78 H34         2.7520   -7.3710    0.1320 h1        1 MOL      0.165722
     79 N8          1.2080   -4.5000   -0.5650 n         1 MOL     -0.168577
     80 C25         0.5850   -3.6660   -1.5230 c3        1 MOL     -0.212730
     81 C26        -0.0760   -2.5510   -0.7400 c         1 MOL      0.715628
     82 O14         0.6190   -1.8430    0.0070 o         1 MOL     -0.505222
     83 C27         1.6400   -3.2380   -2.5470 c3        1 MOL      0.357211
     84 C28         1.1620   -2.2010   -3.5340 c3        1 MOL     -0.170355
     85 O15         2.6950   -2.6060   -1.8620 oh        1 MOL     -0.551555
     86 H35         1.4680   -4.0830    0.3080 hn        1 MOL      0.117867
     87 H36        -0.2170   -4.2130   -2.0140 h1        1 MOL      0.103077
     88 H37         2.0300   -4.1220   -3.0500 h1        1 MOL     -0.039359
     89 H38         2.9290   -3.2150   -1.1550 ho        1 MOL      0.356167
     90 H39         1.9330   -1.5810   -3.9880 hc        1 MOL      0.042381
     91 H40         0.7300   -2.7410   -4.3770 hc        1 MOL      0.042381
     92 H41         0.3580   -1.6770   -3.0230 hc        1 MOL      0.042381
     93 N9         -1.3760   -2.2130   -0.9920 n         1 MOL     -0.629940
     94 C29        -2.2030   -1.2350   -0.2260 c3        1 MOL      0.058853
     95 C30        -3.5680   -1.7740    0.2080 c         1 MOL      0.567664
     96 O16        -4.0610   -1.4690    1.2950 o         1 MOL     -0.510551
     97 C31        -2.2490    0.0280   -1.1360 c3        1 MOL      0.175204
     98 C32        -2.8310    1.3160   -0.6190 c3        1 MOL     -0.043708
     99 C33        -2.8330   -0.2730   -2.5430 c3        1 MOL     -0.395798
    100 C34        -2.1210    1.8270    0.6740 c3        1 MOL     -0.158627
    101 H42        -1.8610   -2.7580   -1.6930 hn        1 MOL      0.299209
    102 H43        -1.6140   -1.0190    0.6790 h1        1 MOL      0.088277
    103 H44        -1.1850    0.2880   -1.1690 hc        1 MOL      0.028069
    104 H45        -3.8990    1.1900   -0.4540 hc        1 MOL      0.036031
    105 H46        -2.7430    2.0900   -1.3670 hc        1 MOL      0.036031
    106 H47        -2.4540   -1.1920   -2.9750 hc        1 MOL      0.089560
    107 H48        -3.9010   -0.3810   -2.3910 hc        1 MOL      0.089560
    108 H49        -2.4430    0.5600   -3.1320 hc        1 MOL      0.089560
    109 H50        -2.0030    0.9890    1.3670 hc        1 MOL      0.047071
    110 H51        -1.1200    2.2250    0.5560 hc        1 MOL      0.047071
    111 H52        -2.8110    2.4710    1.2370 hc        1 MOL      0.047071
    112 N10        -4.2320   -2.5820   -0.6620 n         1 MOL     -0.409468
    113 C35        -5.6570   -3.0340   -0.4610 c3        1 MOL     -0.229017
    114 C36        -6.5650   -2.6930   -1.6460 c         1 MOL      0.786718
    115 O17        -6.3040   -2.9180   -2.8260 o         1 MOL     -0.578123
    116 C37        -5.7390   -4.5640   -0.2990 c3        1 MOL      0.253046
    117 C38        -4.8950   -5.0710    0.8670 c3        1 MOL     -0.277176
    118 O18        -6.9770   -4.9170    0.1720 oh        1 MOL     -0.662487
    119 H53        -3.7480   -2.8410   -1.5100 hn        1 MOL      0.259901
    120 H54        -6.1740   -2.5740    0.3860 h1        1 MOL      0.196560
    121 H55        -5.6080   -5.1950   -1.1790 h1        1 MOL      0.045055
    122 H56        -7.1010   -5.8630    0.2150 ho        1 MOL      0.428633
    123 H57        -4.7950   -6.1230    1.1310 hc        1 MOL      0.089869
    124 H58        -3.8400   -4.8020    0.7710 hc        1 MOL      0.089869
    125 H59        -5.3230   -4.5960    1.7550 hc        1 MOL      0.089869
    126 N11        -7.7260   -2.0950   -1.3710 n         1 MOL     -0.691743
    127 C39        -8.6750   -1.5070   -2.3210 c3        1 MOL      0.044377
    128 C40        -8.9360   -0.0420   -2.1320 c         1 MOL      0.672014
    129 O19        -9.1980    0.6810   -3.0280 o         1 MOL     -0.577319
    130 C41       -10.0020   -2.2940   -2.2500 c3        1 MOL      0.339391
    131 C42       -10.7700   -2.0950   -3.5100 c3        1 MOL     -0.345806
    132 O20       -10.9050   -1.9860   -1.1890 oh        1 MOL     -0.607317
    133 H60        -7.8910   -1.9780   -0.3760 hn        1 MOL      0.330924
    134 H61        -8.2310   -1.5390   -3.3150 h1        1 MOL      0.122639
    135 H62        -9.7540   -3.3490   -2.0920 h1        1 MOL      0.030693
    136 H63       -11.1880   -2.8640   -0.9110 ho        1 MOL      0.375499
    137 H64       -10.1210   -2.2090   -4.3820 hc        1 MOL      0.087296
    138 H65       -11.5560   -2.8440   -3.5360 hc        1 MOL      0.087296
    139 H66       -11.2000   -1.0860   -3.5370 hc        1 MOL      0.087296
    140 N12        -8.8650    0.4910   -0.9150 n         1 MOL     -0.481520
    141 C43        -9.3910    1.8460   -0.5910 c3        1 MOL      0.024518
    142 C44        -8.5120    2.5690    0.4770 c         1 MOL      0.397971
    143 O21        -8.0810    2.0140    1.4770 o         1 MOL     -0.464588
    144 C45       -10.8050    1.7230   -0.0090 c3        1 MOL     -0.082941
    145 C46       -11.7940    1.3300   -1.1100 c3        1 MOL     -0.135763
    146 C47       -13.1980    1.0060   -0.5340 c3        1 MOL      0.055517
    147 C48       -13.2350   -0.4750    0.0380 c3        1 MOL      0.103308
    148 N13       -14.2740   -0.6610    1.0920 n4        1 MOL     -0.253754
    149 H67        -8.6700   -0.0810   -0.0940 hn        1 MOL      0.243991
    150 H68        -9.4390    2.3750   -1.5350 h1        1 MOL      0.118293
    151 H69       -11.1270    2.6880    0.3940 hc        1 MOL      0.057698
    152 H70       -10.8310    1.1170    0.8920 hc        1 MOL      0.057698
    153 H71       -11.4300    0.4770   -1.6920 hc        1 MOL      0.077123
    154 H72       -11.9230    2.1910   -1.7590 hc        1 MOL      0.077123
    155 H73       -14.0310    1.0300   -1.2280 hc        1 MOL      0.002174
    156 H74       -13.4740    1.6880    0.2650 hc        1 MOL      0.002174
    157 H75       -12.2290   -0.6950    0.4000 hx        1 MOL      0.048454
    158 H76       -13.3960   -1.1630   -0.7850 hx        1 MOL      0.048454
    159 H77       -15.0950   -0.1050    0.9040 hn        1 MOL      0.224573
    160 H78       -14.5320   -1.6110    1.2970 hn        1 MOL      0.224573
    161 H79       -13.8770   -0.3000    1.9430 hn        1 MOL      0.224573
    162 N14        -8.4830    3.9240    0.3890 n         1 MOL     -0.230120
    163 C49        -7.7200    4.8040    1.2960 c3        1 MOL     -0.010842
    164 C50        -6.2500    4.6110    1.4210 c         1 MOL      0.433163
    165 O22        -5.7540    4.3090    2.5240 o         1 MOL     -0.493157
    166 C51        -8.0420    6.3000    0.9640 c3        1 MOL     -0.116380
    167 C52        -7.7300    7.1240    2.2980 c3        1 MOL     -0.150247
    168 C53        -7.7390    8.6390    2.1610 c         1 MOL      0.745248
    169 O23        -6.7260    9.3480    2.3710 o         1 MOL     -0.670053
    170 O24        -8.8300    9.1400    1.8580 o         1 MOL     -0.670053
    171 H80        -8.9800    4.3400   -0.3860 hn        1 MOL      0.195089
    172 H81        -8.2990    4.5970    2.2040 h1        1 MOL      0.095270
    173 H82        -9.0900    6.3590    0.6710 hc        1 MOL      0.050118
    174 H83        -7.4770    6.8530    0.2220 hc        1 MOL      0.050118
    175 H84        -6.7530    6.8180    2.6730 hc        1 MOL      0.031406
    176 H85        -8.4630    6.8910    3.0760 hc        1 MOL      0.031406
    177 N15        -5.4590    4.5820    0.2850 n         1 MOL     -0.309542
    178 C54        -5.7760    4.7910   -1.1840 c3        1 MOL     -0.000790
    179 H86        -5.1000    4.1880   -1.7900 h1        1 MOL      0.038708
    180 H87        -6.8050    4.4900   -1.3810 h1        1 MOL      0.038708
    181 H88        -5.6500    5.8430   -1.4380 h1        1 MOL      0.038708
    182 H89        -4.4890    4.3240    0.4500 hn        1 MOL      0.238301
    183 Ca1         6.8590    4.9730   -0.4960 Ca        1 MOL      1.814106
    184 O25         7.8810    5.9220    1.9780 oh        1 MOL     -1.123024
    185 H90         8.6400    6.2310    2.4820 ho        1 MOL      0.526973
    186 H91         7.5310    5.1920    2.4950 ho        1 MOL      0.526973
    187 O26         4.9000    3.1800   -0.8820 oh        1 MOL     -1.123024
    188 H92         4.9310    2.6940   -0.0510 ho        1 MOL      0.526973
    189 H93         4.1750    2.7810   -1.3550 ho        1 MOL      0.526973
@<TRIPOS>BOND
     1    1    2 1   
     2    1    4 1   
     3    1    5 1   
     4    1    6 1   
     5    2    3 2   
     6    2    7 1   
     7    7    8 1   
     8    7   15 1   
     9    8    9 1   
    10    8   11 1   
    11    8   16 1   
    12    9   10 2   
    13    9   19 1   
    14   11   12 1   
    15   11   17 1   
    16   11   18 1   
    17   12   13 1   
    18   12   14 1   
    19   19   20 1   
    20   19   28 1   
    21   20   21 1   
    22   20   23 1   
    23   20   29 1   
    24   21   22 2   
    25   21   41 1   
    26   23   24 1   
    27   23   30 1   
    28   23   31 1   
    29   24   25 1   
    30   24   32 1   
    31   24   33 1   
    32   25   26 1   
    33   25   34 1   
    34   25   35 1   
    35   26   27 1   
    36   26   36 1   
    37   26   37 1   
    38   27   38 1   
    39   27   39 1   
    40   27   40 1   
    41   41   42 1   
    42   41   49 1   
    43   42   43 1   
    44   42   45 1   
    45   42   50 1   
    46   43   44 2   
    47   43   53 1   
    48   45   46 1   
    49   45   51 1   
    50   45   52 1   
    51   46   47 1   
    52   46   48 1   
    53   53   54 1   
    54   53   57 1   
    55   54   55 1   
    56   54   58 1   
    57   54   59 1   
    58   55   56 2   
    59   55   60 1   
    60   60   61 1   
    61   60   68 1   
    62   61   62 1   
    63   61   64 1   
    64   61   69 1   
    65   62   63 2   
    66   62   72 1   
    67   64   65 1   
    68   64   70 1   
    69   64   71 1   
    70   65   66 1   
    71   65   67 1   
    72   72   73 1   
    73   72   76 1   
    74   73   74 1   
    75   73   77 1   
    76   73   78 1   
    77   74   75 2   
    78   74   79 1   
    79   79   80 1   
    80   79   86 1   
    81   80   81 1   
    82   80   83 1   
    83   80   87 1   
    84   81   82 2   
    85   81   93 1   
    86   83   84 1   
    87   83   85 1   
    88   83   88 1   
    89   84   90 1   
    90   84   91 1   
    91   84   92 1   
    92   85   89 1   
    93   93   94 1   
    94   93  101 1   
    95   94   95 1   
    96   94   97 1   
    97   94  102 1   
    98   95   96 2   
    99   95  112 1   
   100   97   98 1   
   101   97   99 1   
   102   97  103 1   
   103   98  100 1   
   104   98  104 1   
   105   98  105 1   
   106   99  106 1   
   107   99  107 1   
   108   99  108 1   
   109  100  109 1   
   110  100  110 1   
   111  100  111 1   
   112  112  113 1   
   113  112  119 1   
   114  113  114 1   
   115  113  116 1   
   116  113  120 1   
   117  114  115 2   
   118  114  126 1   
   119  116  117 1   
   120  116  118 1   
   121  116  121 1   
   122  117  123 1   
   123  117  124 1   
   124  117  125 1   
   125  118  122 1   
   126  126  127 1   
   127  126  133 1   
   128  127  128 1   
   129  127  130 1   
   130  127  134 1   
   131  128  129 2   
   132  128  140 1   
   133  130  131 1   
   134  130  132 1   
   135  130  135 1   
   136  131  137 1   
   137  131  138 1   
   138  131  139 1   
   139  132  136 1   
   140  140  141 1   
   141  140  149 1   
   142  141  142 1   
   143  141  144 1   
   144  141  150 1   
   145  142  143 2   
   146  142  162 1   
   147  144  145 1   
   148  144  151 1   
   149  144  152 1   
   150  145  146 1   
   151  145  153 1   
   152  145  154 1   
   153  146  147 1   
   154  146  155 1   
   155  146  156 1   
   156  147  148 1   
   157  147  157 1   
   158  147  158 1   
   159  148  159 1   
   160  148  160 1   
   161  148  161 1   
   162  162  163 1   
   163  162  171 1   
   164  163  164 1   
   165  163  166 1   
   166  163  172 1   
   167  164  165 2   
   168  164  177 1   
   169  166  167 1   
   170  166  173 1   
   171  166  174 1   
   172  167  168 1   
   173  167  175 1   
   174  167  176 1   
   175  168  169 1   
   176  168  170 1   
   177  177  178 1   
   178  177  182 1   
   179  178  179 1   
   180  178  180 1   
   181  178  181 1   
   182  184  185 1   
   183  184  186 1   
   184  187  188 1   
   185  187  189 1   
@<TRIPOS>SUBSTRUCTURE
     1 MOL         1 TEMP              0 ****  ****    0 ROOT
