@<TRIPOS>MOLECULE
MOL
  182   178     1     0     0
SMALL
resp


@<TRIPOS>ATOM
      1 C1          3.8250    4.0390    6.1380 c3        1 MOL     -0.332713
      2 C2          3.5260    3.4230    4.7470 c         1 MOL      0.687147
      3 O1          4.3930    3.0810    3.9120 o         1 MOL     -0.568450
      4 H1          3.0200    3.7860    6.8280 hc        1 MOL      0.093559
      5 H2          4.7660    3.6400    6.5180 hc        1 MOL      0.093559
      6 H3          3.8990    5.1220    6.0480 hc        1 MOL      0.093559
      7 N1          2.1780    3.4750    4.4060 n         1 MOL     -0.662610
      8 C3          1.6790    3.0900    3.0780 c3        1 MOL      0.049192
      9 C4          2.3100    3.9550    1.9480 c         1 MOL      0.631415
     10 O2          2.2260    5.2020    1.8360 o         1 MOL     -0.564144
     11 C5          0.1280    3.1120    2.8710 c3        1 MOL     -0.044299
     12 C6         -0.3540    2.0300    1.8660 c         1 MOL      0.782433
     13 O3         -1.5580    1.9240    1.7240 o         1 MOL     -0.832713
     14 O4          0.4420    1.3790    1.1880 o         1 MOL     -0.832713
     15 H4          1.4770    3.7880    5.0580 hn        1 MOL      0.343030
     16 H5          2.0840    2.0930    2.9090 h1        1 MOL      0.087975
     17 H6         -0.2080    4.1040    2.5790 hc        1 MOL      0.016600
     18 H7         -0.2700    2.8860    3.8650 hc        1 MOL      0.016600
     19 N2          2.9480    3.2450    0.9850 n         1 MOL     -0.282879
     20 C7          3.6430    3.7530   -0.1620 c3        1 MOL     -0.046876
     21 C8          2.8110    4.5680   -1.1370 c         1 MOL      0.324826
     22 O5          3.2570    5.5830   -1.7110 o         1 MOL     -0.516241
     23 C9          4.3310    2.4980   -0.7530 c3        1 MOL      0.109139
     24 C10         5.2220    2.8850   -1.9660 c3        1 MOL     -0.157480
     25 C11         6.1600    1.7770   -2.4770 c3        1 MOL      0.068948
     26 C12         7.2300    2.2070   -3.5000 c3        1 MOL     -0.015033
     27 N3          8.2910    1.1560   -3.6680 n4        1 MOL     -0.243099
     28 H8          3.0170    2.2690    1.2030 hn        1 MOL      0.198539
     29 H9          4.3810    4.5000    0.1420 h1        1 MOL      0.108435
     30 H10         3.5510    1.8630   -1.1800 hc        1 MOL     -0.003811
     31 H11         4.8820    2.0510    0.0750 hc        1 MOL     -0.003811
     32 H12         5.8800    3.6940   -1.6470 hc        1 MOL      0.060200
     33 H13         4.5910    3.2330   -2.7740 hc        1 MOL      0.060200
     34 H14         5.5980    0.9040   -2.8220 hc        1 MOL     -0.010674
     35 H15         6.6590    1.3700   -1.5880 hc        1 MOL     -0.010674
     36 H16         7.6150    3.1740   -3.1910 hx        1 MOL      0.069580
     37 H17         6.6730    2.3730   -4.4310 hx        1 MOL      0.069580
     38 H18         8.7320    0.9310   -2.7850 hn        1 MOL      0.277786
     39 H19         7.8570    0.3540   -4.0820 hn        1 MOL      0.277786
     40 H20         8.9580    1.4010   -4.3820 hn        1 MOL      0.277786
     41 N4          1.6110    4.0470   -1.4020 n         1 MOL     -0.090328
     42 C13         0.6310    4.6860   -2.2660 c3        1 MOL     -0.129547
     43 C14        -0.3580    5.5530   -1.5510 c         1 MOL      0.572439
     44 O6         -1.2430    6.1700   -2.1250 o         1 MOL     -0.592713
     45 C15         0.0190    3.5490   -3.1680 c3        1 MOL     -0.314852
     46 C16        -0.7480    2.5630   -2.3370 c         1 MOL      0.646293
     47 O7         -1.0200    2.8130   -1.1690 o         1 MOL     -0.719974
     48 O8         -1.0150    1.5020   -2.9190 o         1 MOL     -0.719974
     49 H21         1.3750    3.1760   -0.9490 hn        1 MOL      0.205925
     50 H22         1.1180    5.4430   -2.8700 h1        1 MOL      0.125418
     51 H23         0.8220    3.0070   -3.6780 hc        1 MOL      0.111523
     52 H24        -0.6180    4.0390   -3.9130 hc        1 MOL      0.111523
     53 N5         -0.4900    5.5940   -0.1840 n         1 MOL     -0.247601
     54 C17        -1.4380    6.4200    0.5840 c3        1 MOL     -0.155682
     55 C18        -2.8950    5.9000    0.5890 c         1 MOL      0.588770
     56 O9         -3.6850    6.5130    1.2810 o         1 MOL     -0.559575
     57 H25         0.1140    5.0270    0.4030 hn        1 MOL      0.188825
     58 H26        -1.4960    7.3940    0.0960 h1        1 MOL      0.108811
     59 H27        -1.1210    6.6010    1.6070 h1        1 MOL      0.108811
     60 N6         -3.2260    4.8460   -0.1940 n         1 MOL     -0.359849
     61 C19        -4.5440    4.4030   -0.5290 c3        1 MOL      0.157116
     62 C20        -4.7390    2.8650   -0.5030 c         1 MOL      0.420905
     63 O10        -3.8630    2.0800   -0.6470 o         1 MOL     -0.351719
     64 C21        -4.9470    5.1120   -1.8050 c3        1 MOL     -0.253378
     65 C22        -4.5260    4.4620   -3.0720 c         1 MOL      0.676867
     66 N7         -3.3160    4.6260   -3.4450 n         1 MOL     -0.768444
     67 O11        -5.3270    3.7520   -3.7710 o         1 MOL     -0.622775
     68 H28        -2.5410    4.2460   -0.6190 hn        1 MOL      0.253564
     69 H29        -5.1490    4.7950    0.2870 h1        1 MOL      0.035235
     70 H30        -4.5110    6.1010   -1.8550 hc        1 MOL      0.075092
     71 H31        -6.0360    5.1210   -1.8720 hc        1 MOL      0.075092
     72 H32        -2.7000    5.1750   -2.8520 hn        1 MOL      0.372369
     73 H33        -2.8890    4.1660   -4.2340 hn        1 MOL      0.372369
     74 N8         -6.0060    2.4240   -0.5240 n         1 MOL     -0.477422
     75 C23        -6.4920    1.1020   -0.8890 c3        1 MOL     -0.064380
     76 C24        -6.3400    0.0440    0.1270 c         1 MOL      0.586676
     77 O12        -6.3040    0.3690    1.3040 o         1 MOL     -0.496229
     78 H34        -6.7710    3.0660   -0.3900 hn        1 MOL      0.327505
     79 H35        -5.9290    0.8020   -1.7660 h1        1 MOL      0.077616
     80 H36        -7.5640    1.1050   -1.1200 h1        1 MOL      0.077616
     81 N9         -6.0940   -1.2060   -0.3400 n         1 MOL     -0.598255
     82 C25        -5.5390   -2.1990    0.6130 c3        1 MOL      0.333232
     83 C26        -4.2120   -1.6910    1.2190 c         1 MOL      0.230416
     84 O13        -3.6140   -0.7680    0.6960 o         1 MOL     -0.333565
     85 C27        -5.3550   -3.5660   -0.1300 c3        1 MOL     -0.093547
     86 C28        -6.5730   -4.2290   -0.7660 ca        1 MOL      0.041476
     87 C29        -7.7770   -4.4090    0.0010 ca        1 MOL     -0.139936
     88 C30        -6.4400   -4.7010   -2.1070 ca        1 MOL     -0.139936
     89 C31        -8.7930   -5.1430   -0.5830 ca        1 MOL     -0.289824
     90 C32        -7.5350   -5.4360   -2.6290 ca        1 MOL     -0.289824
     91 C33        -8.6960   -5.6060   -1.8680 ca        1 MOL      0.371998
     92 O14        -9.8150   -6.2460   -2.3670 oh        1 MOL     -0.474752
     93 H37        -5.9850   -1.3460   -1.3290 hn        1 MOL      0.297968
     94 H38        -6.2700   -2.3710    1.4020 h1        1 MOL      0.014082
     95 H39        -4.8880   -4.3690    0.4410 hc        1 MOL      0.011208
     96 H40        -4.5730   -3.3640   -0.8610 hc        1 MOL      0.011208
     97 H41        -7.9840   -4.0170    0.9850 ha        1 MOL      0.147196
     98 H42        -5.4900   -4.7230   -2.6080 ha        1 MOL      0.147196
     99 H43        -9.7280   -5.2780   -0.0540 ha        1 MOL      0.161259
    100 H44        -7.4880   -5.9280   -3.5900 ha        1 MOL      0.161259
    101 H45        -9.5220   -6.8080   -3.0890 ho        1 MOL      0.340197
    102 N10        -3.7410   -2.2600    2.3560 n         1 MOL     -0.426913
    103 C34        -2.5480   -2.0500    3.1920 c3        1 MOL      0.085907
    104 C35        -1.2430   -2.1190    2.4520 c         1 MOL      0.268861
    105 O15        -0.9770   -1.2450    1.5860 o         1 MOL     -0.421603
    106 C36        -2.6320   -0.8220    4.1360 c3        1 MOL      0.228051
    107 C37        -1.4990   -0.7380    5.1980 c3        1 MOL     -0.025069
    108 C38        -3.9640   -0.7850    4.8740 c3        1 MOL     -0.424932
    109 C39        -1.4120    0.4880    6.0580 c3        1 MOL      0.013315
    110 H46        -4.2520   -3.0610    2.6960 hn        1 MOL      0.258805
    111 H47        -2.5700   -2.8270    3.9600 h1        1 MOL      0.021480
    112 H48        -2.6720    0.0300    3.4660 hc        1 MOL      0.105010
    113 H49        -0.5680   -0.6790    4.6360 hc        1 MOL     -0.007455
    114 H50        -1.3980   -1.6020    5.8550 hc        1 MOL     -0.007455
    115 H51        -4.6800   -0.5670    4.0820 hc        1 MOL      0.104111
    116 H52        -4.0140   -1.6760    5.5000 hc        1 MOL      0.104111
    117 H53        -4.1580    0.0190    5.5890 hc        1 MOL      0.104111
    118 H54        -1.8120    1.3110    5.4770 hc        1 MOL     -0.001601
    119 H55        -2.0720    0.4020    6.9310 hc        1 MOL     -0.001601
    120 H56        -0.4310    0.7540    6.4450 hc        1 MOL     -0.001601
    121 N11        -0.4320   -3.0290    2.9080 n         1 MOL     -0.357301
    122 C40         1.0260   -3.0060    2.6530 c3        1 MOL     -0.215470
    123 C41         1.4440   -3.3350    1.2380 c         1 MOL      0.723125
    124 O16         2.4460   -2.7540    0.7700 o         1 MOL     -0.614034
    125 C42         1.8300   -3.8850    3.6690 c3        1 MOL      0.169283
    126 O17         1.4930   -5.2410    3.4550 oh        1 MOL     -0.596359
    127 H57        -0.8450   -3.7870    3.4410 hn        1 MOL      0.304491
    128 H58         1.3570   -1.9800    2.7710 h1        1 MOL      0.174813
    129 H59         1.5710   -3.5210    4.6670 h1        1 MOL      0.054694
    130 H60         2.9090   -3.7600    3.6240 h1        1 MOL      0.054694
    131 H61         2.1360   -5.7850    3.9310 ho        1 MOL      0.404782
    132 N12         0.7210   -4.2100    0.5180 n         1 MOL     -0.466968
    133 C43         1.2130   -4.7400   -0.7660 c3        1 MOL      0.032315
    134 C44         0.9020   -3.9160   -2.0240 c         1 MOL      0.645875
    135 O18        -0.2350   -3.8470   -2.5250 o         1 MOL     -0.588426
    136 C45         0.6220   -6.1760   -0.7100 c3        1 MOL     -0.212334
    137 H62        -0.1540   -4.5630    0.8910 hn        1 MOL      0.316595
    138 H63         2.3010   -4.8420   -0.7060 h1        1 MOL      0.065702
    139 H64        -0.4640   -6.1400   -0.7950 hc        1 MOL      0.075123
    140 H65         0.9390   -6.8420   -1.5130 hc        1 MOL      0.075123
    141 H66         0.7280   -6.5660    0.3050 hc        1 MOL      0.075123
    142 N13         1.9120   -3.4250   -2.7330 n         1 MOL     -0.587501
    143 C46         3.2920   -3.1600   -2.3110 c3        1 MOL      0.310414
    144 C47         4.1990   -4.4110   -2.3360 c         1 MOL      0.620817
    145 O19         3.8500   -5.4270   -2.8860 o         1 MOL     -0.567248
    146 C48         3.8780   -2.0620   -3.0710 c3        1 MOL     -0.287220
    147 H67         1.7290   -3.0520   -3.6610 hn        1 MOL      0.331349
    148 H68         3.2370   -2.7990   -1.2870 h1        1 MOL      0.050092
    149 H69         4.1460   -2.3970   -4.0790 hc        1 MOL      0.064887
    150 H70         3.2290   -1.1890   -3.1450 hc        1 MOL      0.064887
    151 H71         4.7950   -1.6510   -2.6570 hc        1 MOL      0.064887
    152 N14         5.3470   -4.3540   -1.6850 n         1 MOL     -0.612426
    153 C49         5.8770   -3.3240   -0.6890 c3        1 MOL     -0.233463
    154 C50         6.0280   -3.9230    0.7160 c         1 MOL      0.719784
    155 O20         5.7690   -3.2020    1.6040 o         1 MOL     -0.535469
    156 C51         7.1710   -2.6970   -1.2060 c3        1 MOL      0.122500
    157 C52         7.7060   -1.4610   -0.5000 c3        1 MOL     -0.380894
    158 C53         9.0790   -0.8380   -0.9830 c         1 MOL      0.744254
    159 O21        10.0530   -1.5410   -1.1910 o         1 MOL     -0.676984
    160 O22         9.2000    0.3760   -1.2540 o         1 MOL     -0.676984
    161 H72         5.9160   -5.1840   -1.6510 hn        1 MOL      0.320240
    162 H73         5.1990   -2.4740   -0.5970 h1        1 MOL      0.141827
    163 H74         7.1400   -2.4360   -2.2700 hc        1 MOL      0.008135
    164 H75         7.9290   -3.4760   -1.1220 hc        1 MOL      0.008135
    165 H76         7.8890   -1.7990    0.5170 hc        1 MOL      0.106888
    166 H77         6.9300   -0.6890   -0.4400 hc        1 MOL      0.106888
    167 N15         6.3360   -5.2320    0.8750 n         1 MOL     -0.387796
    168 C54         6.6040   -5.9000    2.0980 c3        1 MOL     -0.163913
    169 H78         5.6640   -6.1940    2.5640 h1        1 MOL      0.093787
    170 H79         7.2070   -6.7870    1.9040 h1        1 MOL      0.093787
    171 H80         7.1460   -5.2320    2.7670 h1        1 MOL      0.093787
    172 H81         6.5790   -5.7700    0.0490 hn        1 MOL      0.285375
    173 Ca1        -1.5850    0.3620   -0.4420 Ca        1 MOL      1.719681
    174 O23         0.6410   -1.0460   -1.4400 oh        1 MOL     -0.775943
    175 O24        -1.8700   -2.3600   -1.0180 oh        1 MOL     -0.775943
    176 H82         1.0550   -0.7620   -2.2630 ho        1 MOL      0.389720
    177 H83        -1.5160   -2.7310   -1.8230 ho        1 MOL      0.389720
    178 H84         1.3610   -1.4110   -0.9240 ho        1 MOL      0.389720
    179 H85        -1.9480   -3.1040   -0.4230 ho        1 MOL      0.389720
    180 O25        -3.3890   -0.2410   -2.4030 oh        1 MOL     -0.775943
    181 H86        -3.3760   -0.9630   -3.0410 ho        1 MOL      0.389720
    182 H87        -3.6570    0.5240   -2.9140 ho        1 MOL      0.389720
@<TRIPOS>BOND
     1    1    2 1   
     2    1    4 1   
     3    1    5 1   
     4    1    6 1   
     5    2    3 2   
     6    2    7 1   
     7    7    8 1   
     8    7   15 1   
     9    8    9 1   
    10    8   11 1   
    11    8   16 1   
    12    9   10 2   
    13    9   19 1   
    14   11   12 1   
    15   11   17 1   
    16   11   18 1   
    17   12   13 1   
    18   12   14 1   
    19   19   20 1   
    20   19   28 1   
    21   20   21 1   
    22   20   23 1   
    23   20   29 1   
    24   21   22 2   
    25   21   41 1   
    26   23   24 1   
    27   23   30 1   
    28   23   31 1   
    29   24   25 1   
    30   24   32 1   
    31   24   33 1   
    32   25   26 1   
    33   25   34 1   
    34   25   35 1   
    35   26   27 1   
    36   26   36 1   
    37   26   37 1   
    38   27   38 1   
    39   27   39 1   
    40   27   40 1   
    41   41   42 1   
    42   41   49 1   
    43   42   43 1   
    44   42   45 1   
    45   42   50 1   
    46   43   44 2   
    47   43   53 1   
    48   45   46 1   
    49   45   51 1   
    50   45   52 1   
    51   46   47 1   
    52   46   48 1   
    53   53   54 1   
    54   53   57 1   
    55   54   55 1   
    56   54   58 1   
    57   54   59 1   
    58   55   56 2   
    59   55   60 1   
    60   60   61 1   
    61   60   68 1   
    62   61   62 1   
    63   61   64 1   
    64   61   69 1   
    65   62   63 2   
    66   62   74 1   
    67   64   65 1   
    68   64   70 1   
    69   64   71 1   
    70   65   66 1   
    71   65   67 2   
    72   66   72 1   
    73   66   73 1   
    74   74   75 1   
    75   74   78 1   
    76   75   76 1   
    77   75   79 1   
    78   75   80 1   
    79   76   77 2   
    80   76   81 1   
    81   81   82 1   
    82   81   93 1   
    83   82   83 1   
    84   82   85 1   
    85   82   94 1   
    86   83   84 2   
    87   83  102 1   
    88   85   86 1   
    89   85   95 1   
    90   85   96 1   
    91   86   87 ar  
    92   86   88 ar  
    93   87   89 ar  
    94   87   97 1   
    95   88   90 ar  
    96   88   98 1   
    97   89   91 ar  
    98   89   99 1   
    99   90   91 ar  
   100   90  100 1   
   101   91   92 1   
   102   92  101 1   
   103  102  103 1   
   104  102  110 1   
   105  103  104 1   
   106  103  106 1   
   107  103  111 1   
   108  104  105 2   
   109  104  121 1   
   110  106  107 1   
   111  106  108 1   
   112  106  112 1   
   113  107  109 1   
   114  107  113 1   
   115  107  114 1   
   116  108  115 1   
   117  108  116 1   
   118  108  117 1   
   119  109  118 1   
   120  109  119 1   
   121  109  120 1   
   122  121  122 1   
   123  121  127 1   
   124  122  123 1   
   125  122  125 1   
   126  122  128 1   
   127  123  124 2   
   128  123  132 1   
   129  125  126 1   
   130  125  129 1   
   131  125  130 1   
   132  126  131 1   
   133  132  133 1   
   134  132  137 1   
   135  133  134 1   
   136  133  136 1   
   137  133  138 1   
   138  134  135 2   
   139  134  142 1   
   140  136  139 1   
   141  136  140 1   
   142  136  141 1   
   143  142  143 1   
   144  142  147 1   
   145  143  144 1   
   146  143  146 1   
   147  143  148 1   
   148  144  145 2   
   149  144  152 1   
   150  146  149 1   
   151  146  150 1   
   152  146  151 1   
   153  152  153 1   
   154  152  161 1   
   155  153  154 1   
   156  153  156 1   
   157  153  162 1   
   158  154  155 2   
   159  154  167 1   
   160  156  157 1   
   161  156  163 1   
   162  156  164 1   
   163  157  158 1   
   164  157  165 1   
   165  157  166 1   
   166  158  159 1   
   167  158  160 1   
   168  167  168 1   
   169  167  172 1   
   170  168  169 1   
   171  168  170 1   
   172  168  171 1   
   173  174  176 1   
   174  174  178 1   
   175  175  177 1   
   176  175  179 1   
   177  180  181 1   
   178  180  182 1   
@<TRIPOS>SUBSTRUCTURE
     1 MOL         1 TEMP              0 ****  ****    0 ROOT
