@<TRIPOS>MOLECULE
MOL
  188   182     1     0     0
SMALL
resp


@<TRIPOS>ATOM
      1 C1          5.0520    0.1170    6.3210 c3        1 MOL     -0.344152
      2 C2          4.3710    0.1710    4.9040 c         1 MOL      0.664985
      3 O1          3.1660   -0.0890    4.7950 o         1 MOL     -0.580436
      4 H1          5.3110    1.1270    6.6380 hc        1 MOL      0.083348
      5 H2          4.3620   -0.3230    7.0400 hc        1 MOL      0.083348
      6 H3          5.9570   -0.4890    6.2670 hc        1 MOL      0.083348
      7 N1          5.1970    0.4860    3.8870 n         1 MOL     -0.421948
      8 C3          4.6250    0.4860    2.5090 c3        1 MOL     -0.217510
      9 C4          4.2470   -0.8410    1.9340 c         1 MOL      0.604467
     10 O2          3.3470   -0.9460    1.1230 o         1 MOL     -0.546247
     11 C5          5.4300    1.3860    1.5520 c3        1 MOL     -0.041052
     12 C6          6.8770    1.0900    1.4280 c         1 MOL      0.630831
     13 O3          7.4100    0.0740    1.9640 o         1 MOL     -0.620694
     14 O4          7.6340    1.8870    0.8720 o         1 MOL     -0.620694
     15 H4          6.1870    0.7000    3.9080 hn        1 MOL      0.268191
     16 H5          3.6760    1.0190    2.6470 h1        1 MOL      0.134390
     17 H6          5.2910    2.4410    1.7870 hc        1 MOL      0.067959
     18 H7          4.9200    1.1990    0.6060 hc        1 MOL      0.067959
     19 N2          5.0010   -1.9600    2.3810 n         1 MOL     -0.430438
     20 C7          4.8790   -3.3150    1.8950 c3        1 MOL      0.085748
     21 C8          5.6090   -3.3410    0.5840 c         1 MOL      0.644422
     22 O5          6.7060   -3.9300    0.4500 o         1 MOL     -0.557368
     23 C9          5.3510   -4.2760    2.9990 c3        1 MOL     -0.083170
     24 C10         4.5540   -4.4510    4.3040 c3        1 MOL      0.180322
     25 C11         5.3800   -5.4570    5.1340 c3        1 MOL     -0.118177
     26 C12         4.3690   -6.1070    6.1210 c3        1 MOL      0.155172
     27 N3          4.9470   -7.1630    6.9780 n4        1 MOL     -0.317223
     28 H8          5.5900   -1.8090    3.1930 hn        1 MOL      0.261980
     29 H9          3.8440   -3.6370    1.7440 h1        1 MOL      0.013991
     30 H10         6.3320   -3.8900    3.2770 hc        1 MOL      0.028432
     31 H11         5.4930   -5.2260    2.4850 hc        1 MOL      0.028432
     32 H12         3.5470   -4.7990    4.0930 hc        1 MOL     -0.024860
     33 H13         4.4110   -3.5300    4.8830 hc        1 MOL     -0.024860
     34 H14         6.2200   -5.0060    5.6490 hc        1 MOL      0.049286
     35 H15         5.6900   -6.2380    4.4310 hc        1 MOL      0.049286
     36 H16         3.4890   -6.3950    5.5420 hx        1 MOL      0.036122
     37 H17         3.9890   -5.3350    6.7850 hx        1 MOL      0.036122
     38 H18         4.2480   -7.5950    7.5650 hn        1 MOL      0.267571
     39 H19         5.3900   -7.9060    6.4600 hn        1 MOL      0.267571
     40 H20         5.5560   -6.7140    7.6430 hn        1 MOL      0.267571
     41 N4          5.0630   -2.6750   -0.4580 n         1 MOL     -0.562183
     42 C13         5.5360   -2.6130   -1.8560 c3        1 MOL      0.272998
     43 C14         5.4010   -1.2040   -2.4980 c         1 MOL      0.464678
     44 O6          5.0280   -0.2760   -1.8420 o         1 MOL     -0.404321
     45 C15         4.7140   -3.5750   -2.6780 c3        1 MOL     -0.369442
     46 C16         3.2370   -3.4310   -2.5800 c         1 MOL      0.804201
     47 O7          2.5690   -2.6070   -3.2250 o         1 MOL     -0.768247
     48 O8          2.6530   -4.3250   -1.8620 o         1 MOL     -0.768247
     49 H21         4.4300   -1.9180   -0.2530 hn        1 MOL      0.232542
     50 H22         6.6040   -2.7970   -1.9860 h1        1 MOL      0.043668
     51 H23         5.0570   -4.5620   -2.3760 hc        1 MOL      0.086698
     52 H24         4.9850   -3.4380   -3.7230 hc        1 MOL      0.086698
     53 N5          5.7540   -1.0550   -3.7700 n         1 MOL     -0.431271
     54 C17         5.5780    0.1840   -4.5930 c3        1 MOL     -0.041000
     55 C18         6.7100    1.1480   -4.4600 c         1 MOL      0.554619
     56 O9          7.8330    0.8550   -4.8860 o         1 MOL     -0.572770
     57 H25         6.3440   -1.7480   -4.2080 hn        1 MOL      0.284841
     58 H26         4.6040    0.5920   -4.3110 h1        1 MOL      0.078132
     59 H27         5.5270    0.0030   -5.6710 h1        1 MOL      0.078132
     60 N6          6.6450    2.3160   -3.8420 n         1 MOL     -0.387153
     61 C19         5.4440    2.9650   -3.2800 c3        1 MOL      0.172103
     62 C20         5.7600    3.5820   -1.8960 c         1 MOL      0.474370
     63 O10         6.8710    3.9780   -1.6380 o         1 MOL     -0.473112
     64 C21         4.7910    3.9140   -4.3330 c3        1 MOL     -0.386131
     65 C22         4.2510    3.2240   -5.6190 c         1 MOL      0.610256
     66 N7          3.3260    2.3400   -5.5120 n         1 MOL     -0.689285
     67 O11         4.6790    3.5400   -6.7530 o         1 MOL     -0.541354
     68 H28         7.5240    2.8230   -3.7960 hn        1 MOL      0.296997
     69 H29         4.7250    2.2000   -2.9760 h1        1 MOL      0.035723
     70 H30         5.3590    4.7980   -4.6040 hc        1 MOL      0.122362
     71 H31         3.9120    4.3710   -3.8810 hc        1 MOL      0.122362
     72 H32         2.7350    2.2920   -4.6930 hn        1 MOL      0.336345
     73 H33         3.0480    1.9130   -6.3880 hn        1 MOL      0.336345
     74 N8          4.8200    3.5260   -0.9270 n         1 MOL     -0.408221
     75 C23         3.4370    3.1680   -1.1250 c3        1 MOL     -0.062733
     76 C24         2.5630    3.6490    0.0260 c         1 MOL      0.755723
     77 O12         3.0650    3.8700    1.1240 o         1 MOL     -0.523200
     78 H34         5.1240    3.8060   -0.0050 hn        1 MOL      0.270864
     79 H35         3.3630    2.0850   -1.2290 h1        1 MOL      0.018594
     80 H36         2.9970    3.7540   -1.9330 h1        1 MOL      0.018594
     81 N9          1.2380    3.7950   -0.3200 n         1 MOL     -0.812693
     82 C25         0.1360    4.2330    0.6090 c3        1 MOL      0.457476
     83 C26        -1.1080    3.2770    0.6250 c         1 MOL      0.517081
     84 O13        -1.1600    2.2560    0.0260 o         1 MOL     -0.549700
     85 C27        -0.3540    5.6340    0.2030 c3        1 MOL     -0.152603
     86 C28        -1.0540    6.5150    1.2380 ca        1 MOL     -0.034112
     87 C29        -2.3130    7.1520    0.9060 ca        1 MOL     -0.068030
     88 C30        -0.4990    6.6530    2.5430 ca        1 MOL     -0.068030
     89 C31        -2.9830    7.9760    1.8750 ca        1 MOL     -0.343012
     90 C32        -1.1830    7.5240    3.4870 ca        1 MOL     -0.343012
     91 C33        -2.4580    8.1050    3.1280 ca        1 MOL      0.414692
     92 O14        -3.2750    8.7440    3.9700 oh        1 MOL     -0.492699
     93 H37         0.9920    3.5490   -1.2710 hn        1 MOL      0.336745
     94 H38         0.5030    4.3150    1.6360 h1        1 MOL     -0.038015
     95 H39        -1.0070    5.5890   -0.6720 hc        1 MOL      0.061518
     96 H40         0.5750    6.1670    0.0150 hc        1 MOL      0.061518
     97 H41        -2.7490    6.9930   -0.0650 ha        1 MOL      0.140376
     98 H42         0.3790    6.1180    2.8810 ha        1 MOL      0.140376
     99 H43        -3.9370    8.4570    1.7200 ha        1 MOL      0.160832
    100 H44        -0.8850    7.5390    4.5310 ha        1 MOL      0.160832
    101 H45        -3.0430    8.7180    4.8960 ho        1 MOL      0.370520
    102 N10        -2.0820    3.5600    1.5290 n         1 MOL     -0.342581
    103 C34        -3.3670    2.9090    1.7020 c3        1 MOL     -0.262162
    104 C35        -4.3020    3.2060    0.4860 c         1 MOL      0.743184
    105 O15        -4.1510    4.2640   -0.1340 o         1 MOL     -0.564282
    106 C36        -4.1000    3.2020    2.9910 c3        1 MOL      0.342534
    107 C37        -3.5970    2.2790    4.0810 c3        1 MOL     -0.028575
    108 C38        -3.8540    4.6860    3.3560 c3        1 MOL     -0.159495
    109 C39        -4.5320    2.3880    5.3460 c3        1 MOL     -0.149803
    110 H46        -1.9450    4.4440    1.9840 hn        1 MOL      0.136070
    111 H47        -3.1370    1.8400    1.6270 h1        1 MOL      0.123237
    112 H48        -5.1890    3.1490    2.9650 hc        1 MOL     -0.039481
    113 H49        -2.5690    2.6120    4.2820 hc        1 MOL      0.006240
    114 H50        -3.6610    1.2620    3.7120 hc        1 MOL      0.006240
    115 H51        -2.8330    4.8570    3.6960 hc        1 MOL      0.036930
    116 H52        -3.9800    5.2440    2.4250 hc        1 MOL      0.036930
    117 H53        -4.4790    4.9920    4.1900 hc        1 MOL      0.036930
    118 H54        -4.6000    3.3750    5.7990 hc        1 MOL      0.033680
    119 H55        -5.5350    2.0800    5.0790 hc        1 MOL      0.033680
    120 H56        -4.1730    1.7080    6.1250 hc        1 MOL      0.033680
    121 N11        -5.1990    2.3060    0.2150 n         1 MOL     -0.511930
    122 C40        -6.0840    2.3590   -0.9520 c3        1 MOL      0.016176
    123 C41        -6.2310    0.9740   -1.5460 c         1 MOL      0.629443
    124 O16        -6.0860   -0.0190   -0.8550 o         1 MOL     -0.439060
    125 C42        -7.4450    2.9860   -0.4790 c3        1 MOL      0.092517
    126 O17        -7.8580    2.4190    0.7380 oh        1 MOL     -0.567502
    127 H57        -5.1480    1.4380    0.7280 hn        1 MOL      0.265437
    128 H58        -5.6420    3.0640   -1.6580 h1        1 MOL      0.058906
    129 H59        -8.2010    2.7650   -1.2380 h1        1 MOL      0.029921
    130 H60        -7.3100    4.0620   -0.4340 h1        1 MOL      0.029921
    131 H61        -8.6650    2.8670    0.9950 ho        1 MOL      0.407525
    132 N12        -6.4650    0.9380   -2.8020 n         1 MOL     -0.605282
    133 C43        -6.4750   -0.2550   -3.6060 c3        1 MOL      0.076948
    134 C44        -7.3000   -1.4330   -3.1410 c         1 MOL      0.330852
    135 O18        -6.9180   -2.5700   -3.3060 o         1 MOL     -0.394933
    136 C45        -5.0010   -0.6370   -4.0600 c3        1 MOL     -0.262947
    137 H62        -6.4380    1.8040   -3.3250 hn        1 MOL      0.341848
    138 H63        -6.9520   -0.0320   -4.5630 h1        1 MOL      0.099242
    139 H64        -4.2680   -0.6060   -3.2540 hc        1 MOL      0.101017
    140 H65        -4.9690   -1.5750   -4.6290 hc        1 MOL      0.101017
    141 H66        -4.6940    0.1480   -4.7590 hc        1 MOL      0.101017
    142 N13        -8.3420   -1.2100   -2.3270 n         1 MOL     -0.388202
    143 C46        -9.1870   -2.1900   -1.6150 c3        1 MOL      0.091026
    144 C47        -8.3450   -3.3410   -0.9440 c         1 MOL      0.398731
    145 O19        -8.7400   -4.4840   -1.0820 o         1 MOL     -0.502970
    146 C48       -10.2060   -2.7740   -2.6700 c3        1 MOL     -0.260977
    147 H67        -8.6820   -0.2640   -2.3170 hn        1 MOL      0.283950
    148 H68        -9.7160   -1.6660   -0.8180 h1        1 MOL      0.051585
    149 H69        -9.6970   -3.4530   -3.3450 hc        1 MOL      0.084748
    150 H70       -11.0420   -3.3690   -2.2800 hc        1 MOL      0.084748
    151 H71       -10.7100   -1.9780   -3.2190 hc        1 MOL      0.084748
    152 N14        -7.2620   -3.0540   -0.3320 n         1 MOL     -0.275235
    153 C49        -6.3620   -4.0170    0.3060 c3        1 MOL      0.201801
    154 C50        -6.7100   -4.2830    1.7720 c         1 MOL      0.340811
    155 O20        -6.7520   -5.4880    2.0940 o         1 MOL     -0.524111
    156 C51        -4.9080   -3.5270    0.2260 c3        1 MOL      0.172004
    157 C52        -4.2910   -2.9920   -1.0250 c3        1 MOL      0.189540
    158 C53        -2.7710   -3.1330   -1.0550 c         1 MOL      0.525146
    159 O21        -2.3530   -3.8020   -1.9840 o         1 MOL     -0.721007
    160 O22        -1.9990   -2.5480   -0.3120 o         1 MOL     -0.721007
    161 H72        -7.0040   -2.0740   -0.3550 hn        1 MOL      0.134977
    162 H73        -6.3850   -4.9870   -0.1900 h1        1 MOL      0.049342
    163 H74        -4.3670   -4.4140    0.5340 hc        1 MOL     -0.089733
    164 H75        -4.7780   -2.7790    1.0030 hc        1 MOL     -0.089733
    165 H76        -4.5460   -1.9340   -1.0860 hc        1 MOL     -0.039712
    166 H77        -4.7480   -3.5230   -1.8590 hc        1 MOL     -0.039712
    167 N15        -7.0430   -3.3670    2.6760 n         1 MOL     -0.254815
    168 C54        -7.5800   -3.5910    4.0120 c3        1 MOL     -0.053060
    169 H78        -7.0330   -2.9800    4.7300 h1        1 MOL      0.064374
    170 H79        -8.6350   -3.3150    4.0310 h1        1 MOL      0.064374
    171 H80        -7.4740   -4.6430    4.2760 h1        1 MOL      0.064374
    172 H81        -7.0900   -2.4330    2.2900 hn        1 MOL      0.215399
    173 Ca1         0.2370   -3.3870   -1.5720 Ca        1 MOL      1.727620
    174 O23        -0.5140   -4.0040   -4.0980 oh        1 MOL     -0.813051
    175 H82        -0.7830   -3.3590   -4.7480 ho        1 MOL      0.407188
    176 H83        -0.4720   -4.8330   -4.5750 ho        1 MOL      0.407188
    177 O24        -0.1870   -1.1290   -3.0880 oh        1 MOL     -0.813051
    178 H84        -0.5610   -0.6260   -3.8030 ho        1 MOL      0.407188
    179 H85         0.6550   -0.7190   -2.9080 ho        1 MOL      0.407188
    180 O25         0.1500   -6.0460   -1.2330 oh        1 MOL     -0.813051
    181 H86        -0.4110   -6.3000   -1.9610 ho        1 MOL      0.407188
    182 H87        -0.1910   -6.5390   -0.4840 ho        1 MOL      0.407188
    183 O26         0.4630   -3.9390    0.9820 oh        1 MOL     -0.813051
    184 H88         0.0780   -3.6570    1.8070 ho        1 MOL      0.407188
    185 H89         1.1000   -4.6190    1.2310 ho        1 MOL      0.407188
    186 O27         1.1170   -1.2470   -0.1240 oh        1 MOL     -0.813051
    187 H90         1.9790   -1.0230    0.2310 ho        1 MOL      0.407188
    188 H91         0.5060   -0.6420    0.3080 ho        1 MOL      0.407188
@<TRIPOS>BOND
     1    1    2 1   
     2    1    4 1   
     3    1    5 1   
     4    1    6 1   
     5    2    3 2   
     6    2    7 1   
     7    7    8 1   
     8    7   15 1   
     9    8    9 1   
    10    8   11 1   
    11    8   16 1   
    12    9   10 2   
    13    9   19 1   
    14   11   12 1   
    15   11   17 1   
    16   11   18 1   
    17   12   13 1   
    18   12   14 1   
    19   19   20 1   
    20   19   28 1   
    21   20   21 1   
    22   20   23 1   
    23   20   29 1   
    24   21   22 2   
    25   21   41 1   
    26   23   24 1   
    27   23   30 1   
    28   23   31 1   
    29   24   25 1   
    30   24   32 1   
    31   24   33 1   
    32   25   26 1   
    33   25   34 1   
    34   25   35 1   
    35   26   27 1   
    36   26   36 1   
    37   26   37 1   
    38   27   38 1   
    39   27   39 1   
    40   27   40 1   
    41   41   42 1   
    42   41   49 1   
    43   42   43 1   
    44   42   45 1   
    45   42   50 1   
    46   43   44 2   
    47   43   53 1   
    48   45   46 1   
    49   45   51 1   
    50   45   52 1   
    51   46   47 1   
    52   46   48 1   
    53   53   54 1   
    54   53   57 1   
    55   54   55 1   
    56   54   58 1   
    57   54   59 1   
    58   55   56 2   
    59   55   60 1   
    60   60   61 1   
    61   60   68 1   
    62   61   62 1   
    63   61   64 1   
    64   61   69 1   
    65   62   63 2   
    66   62   74 1   
    67   64   65 1   
    68   64   70 1   
    69   64   71 1   
    70   65   66 1   
    71   65   67 2   
    72   66   72 1   
    73   66   73 1   
    74   74   75 1   
    75   74   78 1   
    76   75   76 1   
    77   75   79 1   
    78   75   80 1   
    79   76   77 2   
    80   76   81 1   
    81   81   82 1   
    82   81   93 1   
    83   82   83 1   
    84   82   85 1   
    85   82   94 1   
    86   83   84 2   
    87   83  102 1   
    88   85   86 1   
    89   85   95 1   
    90   85   96 1   
    91   86   87 ar  
    92   86   88 ar  
    93   87   89 ar  
    94   87   97 1   
    95   88   90 ar  
    96   88   98 1   
    97   89   91 ar  
    98   89   99 1   
    99   90   91 ar  
   100   90  100 1   
   101   91   92 1   
   102   92  101 1   
   103  102  103 1   
   104  102  110 1   
   105  103  104 1   
   106  103  106 1   
   107  103  111 1   
   108  104  105 2   
   109  104  121 1   
   110  106  107 1   
   111  106  108 1   
   112  106  112 1   
   113  107  109 1   
   114  107  113 1   
   115  107  114 1   
   116  108  115 1   
   117  108  116 1   
   118  108  117 1   
   119  109  118 1   
   120  109  119 1   
   121  109  120 1   
   122  121  122 1   
   123  121  127 1   
   124  122  123 1   
   125  122  125 1   
   126  122  128 1   
   127  123  124 2   
   128  123  132 1   
   129  125  126 1   
   130  125  129 1   
   131  125  130 1   
   132  126  131 1   
   133  132  133 1   
   134  132  137 1   
   135  133  134 1   
   136  133  136 1   
   137  133  138 1   
   138  134  135 2   
   139  134  142 1   
   140  136  139 1   
   141  136  140 1   
   142  136  141 1   
   143  142  143 1   
   144  142  147 1   
   145  143  144 1   
   146  143  146 1   
   147  143  148 1   
   148  144  145 2   
   149  144  152 1   
   150  146  149 1   
   151  146  150 1   
   152  146  151 1   
   153  152  153 1   
   154  152  161 1   
   155  153  154 1   
   156  153  156 1   
   157  153  162 1   
   158  154  155 2   
   159  154  167 1   
   160  156  157 1   
   161  156  163 1   
   162  156  164 1   
   163  157  158 1   
   164  157  165 1   
   165  157  166 1   
   166  158  159 1   
   167  158  160 1   
   168  167  168 1   
   169  167  172 1   
   170  168  169 1   
   171  168  170 1   
   172  168  171 1   
   173  174  175 1   
   174  174  176 1   
   175  177  178 1   
   176  177  179 1   
   177  180  181 1   
   178  180  182 1   
   179  183  184 1   
   180  183  185 1   
   181  186  187 1   
   182  186  188 1   
@<TRIPOS>SUBSTRUCTURE
     1 MOL         1 TEMP              0 ****  ****    0 ROOT
