@<TRIPOS>MOLECULE
MOL
  185   180     1     0     0
SMALL
resp


@<TRIPOS>ATOM
      1 C1          6.0880   -1.0360   -3.8000 c3        1 MOL     -0.496245
      2 C2          6.7800   -0.8900   -2.4890 c         1 MOL      0.599296
      3 O1          6.1000   -0.6650   -1.4650 o         1 MOL     -0.450529
      4 H1          5.0330   -0.7910   -3.6820 hc        1 MOL      0.141379
      5 H2          6.5380   -0.3600   -4.5260 hc        1 MOL      0.141379
      6 H3          6.1850   -2.0640   -4.1500 hc        1 MOL      0.141379
      7 N1          8.0950   -1.1960   -2.3810 n         1 MOL     -0.629709
      8 C3          8.8920   -1.2940   -1.1090 c3        1 MOL      0.311627
      9 C4          8.4550   -0.2850    0.0070 c         1 MOL      0.454044
     10 O2          8.3970   -0.6090    1.1980 o         1 MOL     -0.463579
     11 C5          8.8670   -2.6810   -0.4780 c3        1 MOL     -0.201263
     12 C6          9.2310   -3.8140   -1.4240 c         1 MOL      0.725747
     13 O3          8.5370   -4.8870   -1.5100 o         1 MOL     -0.673426
     14 O4         10.2530   -3.6650   -2.1080 o         1 MOL     -0.673426
     15 H4          8.4780   -1.4970   -3.2620 hn        1 MOL      0.339310
     16 H5          9.9180   -1.0560   -1.4000 h1        1 MOL     -0.006310
     17 H6          7.8790   -2.8830   -0.0780 hc        1 MOL      0.043513
     18 H7          9.6120   -2.6580    0.3150 hc        1 MOL      0.043513
     19 N2          8.2010    0.9910   -0.3560 n         1 MOL     -0.501688
     20 C7          7.9420    2.0200    0.5670 c3        1 MOL     -0.079041
     21 C8          6.5360    1.9700    1.2870 c         1 MOL      0.495413
     22 O5          6.2870    2.6790    2.3010 o         1 MOL     -0.532536
     23 C9          7.9760    3.4400   -0.1440 c3        1 MOL      0.000823
     24 C10         9.3490    3.8810   -0.5700 c3        1 MOL      0.050026
     25 C11         9.3210    5.3810   -1.0250 c3        1 MOL      0.101261
     26 C12        10.8820    5.5550   -1.2820 c3        1 MOL     -0.128369
     27 N3         11.2050    6.8250   -1.8830 n4        1 MOL     -0.095034
     28 H8          8.2570    1.2030   -1.3380 hn        1 MOL      0.269084
     29 H9          8.7660    1.9260    1.2630 h1        1 MOL      0.136069
     30 H10         7.6100    4.2540    0.4880 hc        1 MOL      0.022472
     31 H11         7.2780    3.3490   -0.9810 hc        1 MOL      0.022472
     32 H12         9.7210    3.2840   -1.4080 hc        1 MOL     -0.001948
     33 H13        10.0120    3.7920    0.2880 hc        1 MOL     -0.001948
     34 H14         8.8700    6.0590   -0.3020 hc        1 MOL      0.000514
     35 H15         8.7710    5.3810   -1.9710 hc        1 MOL      0.000514
     36 H16        11.0910    4.7770   -2.0220 hx        1 MOL      0.111693
     37 H17        11.4060    5.4880   -0.3340 hx        1 MOL      0.111693
     38 H18        10.6230    7.5280   -1.4770 hn        1 MOL      0.231879
     39 H19        12.1830    7.0050   -1.7400 hn        1 MOL      0.231879
     40 H20        10.9100    6.9270   -2.8500 hn        1 MOL      0.231879
     41 N4          5.6020    1.1880    0.6520 n         1 MOL     -0.263938
     42 C13         4.1450    1.3730    0.8060 c3        1 MOL     -0.151478
     43 C14         3.7200    1.2140    2.2590 c         1 MOL      0.663072
     44 O6          4.0700    0.3120    3.0000 o         1 MOL     -0.484044
     45 C15         3.3040    0.4890   -0.1460 c3        1 MOL     -0.122884
     46 C16         1.8520    0.7140   -0.1530 c         1 MOL      0.788130
     47 O7          1.3070    1.3100   -1.1160 o         1 MOL     -0.768461
     48 O8          1.0930    0.2590    0.7060 o         1 MOL     -0.768461
     49 H21         5.9280    0.6150   -0.1110 hn        1 MOL      0.221950
     50 H22         3.9890    2.4170    0.5300 h1        1 MOL      0.057956
     51 H23         3.5160   -0.5070    0.2660 hc        1 MOL      0.084932
     52 H24         3.6250    0.5840   -1.1890 hc        1 MOL      0.084932
     53 N5          2.9090    2.1920    2.7770 n         1 MOL     -0.424123
     54 C17         2.6170    2.3730    4.1540 c3        1 MOL     -0.028077
     55 C18         1.6810    1.4090    4.8060 c         1 MOL      0.400369
     56 O9          1.9780    0.8410    5.8780 o         1 MOL     -0.500193
     57 H25         2.4460    2.8480    2.1700 hn        1 MOL      0.252789
     58 H26         2.2560    3.3880    4.3280 h1        1 MOL      0.083429
     59 H27         3.5660    2.4040    4.6910 h1        1 MOL      0.083429
     60 N6          0.5730    1.0530    4.1110 n         1 MOL     -0.296903
     61 C19        -0.3150    0.0030    4.6120 c3        1 MOL      0.045818
     62 C20         0.3210   -1.3020    4.1280 c         1 MOL      0.341521
     63 O10         0.0080   -2.4450    4.6080 o         1 MOL     -0.553205
     64 C21        -1.7720    0.2530    4.2760 c3        1 MOL     -0.442267
     65 C22        -2.0870    0.0730    2.8690 c         1 MOL      0.795195
     66 N7         -2.5050   -1.0620    2.4170 n         1 MOL     -0.721981
     67 O11        -1.8810    1.0220    2.1710 o         1 MOL     -0.687283
     68 H28         0.4310    1.4000    3.1720 hn        1 MOL      0.225576
     69 H29        -0.2780    0.1170    5.6900 h1        1 MOL      0.142353
     70 H30        -1.9970    1.2650    4.6200 hc        1 MOL      0.138898
     71 H31        -2.3160   -0.4600    4.9030 hc        1 MOL      0.138898
     72 H32        -2.7180   -1.7340    3.1340 hn        1 MOL      0.342586
     73 H33        -2.4710   -1.3350    1.4450 hn        1 MOL      0.342586
     74 N8          1.2820   -1.2730    3.1970 n         1 MOL      0.075089
     75 C23         1.8850   -2.4750    2.7230 c3        1 MOL     -0.221048
     76 C24         1.1310   -3.2460    1.6310 c         1 MOL      0.662190
     77 O12         1.0650   -4.4550    1.6780 o         1 MOL     -0.565405
     78 H34         1.5450   -0.3780    2.8000 hn        1 MOL      0.047368
     79 H35         1.9860   -3.1640    3.5570 h1        1 MOL      0.113804
     80 H36         2.9220   -2.2450    2.4380 h1        1 MOL      0.113804
     81 N9          0.5370   -2.4810    0.7020 n         1 MOL     -0.544441
     82 C25        -0.0840   -3.0250   -0.5320 c3        1 MOL      0.302042
     83 C26        -1.4270   -2.2510   -0.6790 c         1 MOL      0.413368
     84 O13        -1.3740   -1.0170   -0.3590 o         1 MOL     -0.496071
     85 C27         0.9040   -2.9070   -1.6900 c3        1 MOL     -0.096697
     86 C28         2.2060   -3.8470   -1.6600 ca        1 MOL      0.045345
     87 C29         2.2590   -5.1030   -2.3950 ca        1 MOL     -0.201211
     88 C30         3.4000   -3.3470   -1.0670 ca        1 MOL     -0.201211
     89 C31         3.4660   -5.8630   -2.4530 ca        1 MOL     -0.192771
     90 C32         4.6010   -4.1000   -1.1740 ca        1 MOL     -0.192771
     91 C33         4.6220   -5.3430   -1.8030 ca        1 MOL      0.348136
     92 O14         5.7320   -6.0630   -1.9550 oh        1 MOL     -0.516125
     93 H37         0.5310   -1.4700    0.7860 hn        1 MOL      0.204056
     94 H38        -0.5330   -4.0250   -0.4710 h1        1 MOL     -0.009754
     95 H39         1.2160   -1.8630   -1.6530 hc        1 MOL      0.024462
     96 H40         0.3260   -3.0590   -2.5960 hc        1 MOL      0.024462
     97 H41         1.3390   -5.3270   -2.9240 ha        1 MOL      0.112707
     98 H42         3.4210   -2.4430   -0.4740 ha        1 MOL      0.112707
     99 H43         3.6140   -6.7810   -3.0140 ha        1 MOL      0.135505
    100 H44         5.5070   -3.8170   -0.6510 ha        1 MOL      0.135505
    101 H45         6.4960   -5.7410   -1.4680 ho        1 MOL      0.395717
    102 N10        -2.4950   -2.7990   -1.2190 n         1 MOL     -0.452317
    103 C34        -3.7710   -2.2210   -1.6640 c3        1 MOL      0.058648
    104 C35        -4.6660   -2.0320   -0.4820 c         1 MOL     -0.155453
    105 O15        -5.1400   -0.9210   -0.3440 o         1 MOL     -0.062082
    106 C36        -4.4240   -3.0090   -2.8080 c3        1 MOL      0.282634
    107 C37        -5.5510   -2.1310   -3.4030 c3        1 MOL     -0.073824
    108 C38        -4.9530   -4.3720   -2.4100 c3        1 MOL     -0.398091
    109 C39        -5.0580   -0.7750   -3.9920 c3        1 MOL     -0.236278
    110 H46        -2.4720   -3.7860   -1.4560 hn        1 MOL      0.289375
    111 H47        -3.5160   -1.2460   -2.0700 h1        1 MOL      0.076013
    112 H48        -3.6670   -3.1490   -3.5710 hc        1 MOL     -0.005554
    113 H49        -6.3740   -2.0710   -2.6960 hc        1 MOL      0.044722
    114 H50        -5.8570   -2.7870   -4.2130 hc        1 MOL      0.044722
    115 H51        -5.3600   -4.9130   -3.2750 hc        1 MOL      0.099519
    116 H52        -4.1170   -4.9210   -1.9620 hc        1 MOL      0.099519
    117 H53        -5.7130   -4.2720   -1.6400 hc        1 MOL      0.099519
    118 H54        -5.9110   -0.3120   -4.4750 hc        1 MOL      0.071911
    119 H55        -4.8030   -0.0600   -3.2040 hc        1 MOL      0.071911
    120 H56        -4.2050   -0.8800   -4.6540 hc        1 MOL      0.071911
    121 N11        -4.8120   -3.0420    0.4530 n         1 MOL     -0.103522
    122 C40        -5.6290   -3.0040    1.6870 c3        1 MOL     -0.091436
    123 C41        -7.1290   -2.5640    1.3830 c         1 MOL      0.595405
    124 O16        -7.8490   -2.1140    2.2560 o         1 MOL     -0.493478
    125 C42        -5.5160   -4.2450    2.4590 c3        1 MOL      0.172445
    126 O17        -5.7490   -5.2810    1.5580 oh        1 MOL     -0.646673
    127 H57        -4.3770   -3.9370    0.2870 hn        1 MOL      0.305783
    128 H58        -5.2300   -2.2020    2.3200 h1        1 MOL      0.038295
    129 H59        -6.3120   -4.1880    3.2120 h1        1 MOL      0.051871
    130 H60        -4.5500   -4.2960    2.9530 h1        1 MOL      0.051871
    131 H61        -6.4580   -5.8180    1.9340 ho        1 MOL      0.435642
    132 N12        -7.5490   -2.6370    0.0870 n         1 MOL     -0.626236
    133 C43        -8.7290   -1.8950   -0.4710 c3        1 MOL      0.551778
    134 C44        -8.8930   -0.4470    0.0010 c         1 MOL      0.316031
    135 O18        -9.9530    0.0960    0.2430 o         1 MOL     -0.498901
    136 C45        -9.9930   -2.6970   -0.3580 c3        1 MOL     -0.255635
    137 H62        -6.9020   -2.9970   -0.6020 hn        1 MOL      0.271118
    138 H63        -8.5210   -1.8780   -1.5360 h1        1 MOL     -0.029341
    139 H64       -10.4070   -2.7760    0.6530 hc        1 MOL      0.055210
    140 H65       -10.6500   -2.0340   -0.9290 hc        1 MOL      0.055210
    141 H66        -9.9140   -3.6500   -0.8870 hc        1 MOL      0.055210
    142 N13        -7.7080    0.2130    0.1480 n         1 MOL     -0.220696
    143 C46        -7.5320    1.5580    0.6760 c3        1 MOL      0.429169
    144 C47        -6.9370    2.4350   -0.4160 c         1 MOL      0.244352
    145 O19        -6.3680    1.9230   -1.3410 o         1 MOL     -0.413680
    146 C48        -6.7500    1.4560    2.0200 c3        1 MOL     -0.157648
    147 H67        -6.8980   -0.2590   -0.2160 hn        1 MOL     -0.091424
    148 H68        -8.5000    1.9300    1.0040 h1        1 MOL     -0.035598
    149 H69        -5.7680    1.0630    1.7580 hc        1 MOL      0.039490
    150 H70        -6.6600    2.4520    2.4470 hc        1 MOL      0.039490
    151 H71        -7.2590    0.8160    2.7350 hc        1 MOL      0.039490
    152 N14        -7.0070    3.7820   -0.2930 n         1 MOL     -0.285181
    153 C49        -6.5350    4.7950   -1.2770 c3        1 MOL     -0.109293
    154 C50        -7.0130    4.6830   -2.7120 c         1 MOL      0.473271
    155 O20        -6.3340    5.1170   -3.6350 o         1 MOL     -0.487237
    156 C51        -4.9670    4.8810   -1.2810 c3        1 MOL     -0.034436
    157 C52        -4.3560    5.2330    0.0640 c3        1 MOL      0.051028
    158 C53        -2.8530    4.9200    0.1780 c         1 MOL      0.633139
    159 O21        -2.0500    5.6220   -0.4240 o         1 MOL     -0.705374
    160 O22        -2.5340    3.7090    0.4680 o         1 MOL     -0.705374
    161 H72        -7.6640    3.9960    0.4430 hn        1 MOL      0.228358
    162 H73        -6.9560    5.7350   -0.9150 h1        1 MOL      0.110479
    163 H74        -4.7010    5.7760   -1.8320 hc        1 MOL      0.068842
    164 H75        -4.5690    3.9990   -1.7970 hc        1 MOL      0.068842
    165 H76        -4.7950    4.6430    0.8780 hc        1 MOL     -0.037831
    166 H77        -4.4410    6.2790    0.3620 hc        1 MOL     -0.037831
    167 N15        -8.1820    4.0110   -2.9500 n         1 MOL     -0.408198
    168 C54        -8.5080    3.4850   -4.3040 c3        1 MOL      0.050673
    169 H78        -9.5220    3.7830   -4.5740 h1        1 MOL      0.045813
    170 H79        -7.8050    3.8910   -5.0310 h1        1 MOL      0.045813
    171 H80        -8.4390    2.3980   -4.2990 h1        1 MOL      0.045813
    172 H81        -8.5120    3.5610   -2.1170 hn        1 MOL      0.234450
    173 Ca1        -1.0530    1.7080   -0.2770 Ca        1 MOL      1.784006
    174 O23        -3.6150    1.4610   -0.9460 oh        1 MOL     -0.869014
    175 H82        -4.1950    0.8250   -0.5160 ho        1 MOL      0.420275
    176 H83        -4.1600    1.8480   -1.6350 ho        1 MOL      0.420275
    177 O24        -1.1090    1.1840   -2.9090 oh        1 MOL     -0.869014
    178 O25        -0.2130    4.0660   -1.2140 oh        1 MOL     -0.869014
    179 H84        -1.6790    1.1020   -3.6820 ho        1 MOL      0.420275
    180 H85         0.0460    4.4840   -2.0380 ho        1 MOL      0.420275
    181 H86        -0.3070    0.7180   -3.1680 ho        1 MOL      0.420275
    182 H87        -0.8550    4.6670   -0.8360 ho        1 MOL      0.420275
    183 O26         0.2460    3.4310    1.5350 oh        1 MOL     -0.869014
    184 H88         0.2930    4.2560    1.0590 ho        1 MOL      0.420275
    185 H89         0.0770    3.6830    2.4420 ho        1 MOL      0.420275
@<TRIPOS>BOND
     1    1    2 1   
     2    1    4 1   
     3    1    5 1   
     4    1    6 1   
     5    2    3 2   
     6    2    7 1   
     7    7    8 1   
     8    7   15 1   
     9    8    9 1   
    10    8   11 1   
    11    8   16 1   
    12    9   10 2   
    13    9   19 1   
    14   11   12 1   
    15   11   17 1   
    16   11   18 1   
    17   12   13 1   
    18   12   14 1   
    19   19   20 1   
    20   19   28 1   
    21   20   21 1   
    22   20   23 1   
    23   20   29 1   
    24   21   22 2   
    25   21   41 1   
    26   23   24 1   
    27   23   30 1   
    28   23   31 1   
    29   24   25 1   
    30   24   32 1   
    31   24   33 1   
    32   25   26 1   
    33   25   34 1   
    34   25   35 1   
    35   26   27 1   
    36   26   36 1   
    37   26   37 1   
    38   27   38 1   
    39   27   39 1   
    40   27   40 1   
    41   41   42 1   
    42   41   49 1   
    43   42   43 1   
    44   42   45 1   
    45   42   50 1   
    46   43   44 2   
    47   43   53 1   
    48   45   46 1   
    49   45   51 1   
    50   45   52 1   
    51   46   47 1   
    52   46   48 1   
    53   53   54 1   
    54   53   57 1   
    55   54   55 1   
    56   54   58 1   
    57   54   59 1   
    58   55   56 2   
    59   55   60 1   
    60   60   61 1   
    61   60   68 1   
    62   61   62 1   
    63   61   64 1   
    64   61   69 1   
    65   62   63 2   
    66   62   74 1   
    67   64   65 1   
    68   64   70 1   
    69   64   71 1   
    70   65   66 1   
    71   65   67 2   
    72   66   72 1   
    73   66   73 1   
    74   74   75 1   
    75   74   78 1   
    76   75   76 1   
    77   75   79 1   
    78   75   80 1   
    79   76   77 2   
    80   76   81 1   
    81   81   82 1   
    82   81   93 1   
    83   82   83 1   
    84   82   85 1   
    85   82   94 1   
    86   83   84 2   
    87   83  102 1   
    88   85   86 1   
    89   85   95 1   
    90   85   96 1   
    91   86   87 ar  
    92   86   88 ar  
    93   87   89 ar  
    94   87   97 1   
    95   88   90 ar  
    96   88   98 1   
    97   89   91 ar  
    98   89   99 1   
    99   90   91 ar  
   100   90  100 1   
   101   91   92 1   
   102   92  101 1   
   103  102  103 1   
   104  102  110 1   
   105  103  104 1   
   106  103  106 1   
   107  103  111 1   
   108  104  105 2   
   109  104  121 1   
   110  106  107 1   
   111  106  108 1   
   112  106  112 1   
   113  107  109 1   
   114  107  113 1   
   115  107  114 1   
   116  108  115 1   
   117  108  116 1   
   118  108  117 1   
   119  109  118 1   
   120  109  119 1   
   121  109  120 1   
   122  121  122 1   
   123  121  127 1   
   124  122  123 1   
   125  122  125 1   
   126  122  128 1   
   127  123  124 2   
   128  123  132 1   
   129  125  126 1   
   130  125  129 1   
   131  125  130 1   
   132  126  131 1   
   133  132  133 1   
   134  132  137 1   
   135  133  134 1   
   136  133  136 1   
   137  133  138 1   
   138  134  135 2   
   139  134  142 1   
   140  136  139 1   
   141  136  140 1   
   142  136  141 1   
   143  142  143 1   
   144  142  147 1   
   145  143  144 1   
   146  143  146 1   
   147  143  148 1   
   148  144  145 2   
   149  144  152 1   
   150  146  149 1   
   151  146  150 1   
   152  146  151 1   
   153  152  153 1   
   154  152  161 1   
   155  153  154 1   
   156  153  156 1   
   157  153  162 1   
   158  154  155 2   
   159  154  167 1   
   160  156  157 1   
   161  156  163 1   
   162  156  164 1   
   163  157  158 1   
   164  157  165 1   
   165  157  166 1   
   166  158  159 1   
   167  158  160 1   
   168  167  168 1   
   169  167  172 1   
   170  168  169 1   
   171  168  170 1   
   172  168  171 1   
   173  174  175 1   
   174  174  176 1   
   175  177  179 1   
   176  177  181 1   
   177  178  180 1   
   178  178  182 1   
   179  183  184 1   
   180  183  185 1   
@<TRIPOS>SUBSTRUCTURE
     1 MOL         1 TEMP              0 ****  ****    0 ROOT
