@<TRIPOS>MOLECULE
MOL
  182   178     1     0     0
SMALL
resp


@<TRIPOS>ATOM
      1 C1         -0.3550   -3.1390    5.9110 c3        1 MOL     -0.367287
      2 C2         -0.0750   -3.2180    4.4100 c         1 MOL      0.764783
      3 O1         -1.0620   -3.3920    3.6790 o         1 MOL     -0.594820
      4 H1         -0.0680   -4.0780    6.3840 hc        1 MOL      0.103773
      5 H2          0.2210   -2.3220    6.3460 hc        1 MOL      0.103773
      6 H3         -1.4180   -2.9610    6.0740 hc        1 MOL      0.103773
      7 N1          1.1610   -3.1300    3.9850 n         1 MOL     -0.539320
      8 C3          1.5700   -3.0000    2.6360 c3        1 MOL      0.055725
      9 C4          1.4880   -4.3000    1.7970 c         1 MOL      0.504052
     10 O2          1.4590   -5.4030    2.3410 o         1 MOL     -0.547634
     11 C5          2.9730   -2.3800    2.5950 c3        1 MOL     -0.019035
     12 C6          3.2570   -1.5290    1.4140 c         1 MOL      0.150996
     13 O3          4.1330   -0.6150    1.4650 o         1 MOL     -0.503443
     14 O4          2.7250   -1.7800    0.3300 o         1 MOL     -0.503443
     15 H4          1.9300   -3.1290    4.6470 hn        1 MOL      0.298924
     16 H5          0.8360   -2.2990    2.2530 h1        1 MOL     -0.091898
     17 H6          3.8260   -3.0560    2.5800 hc        1 MOL      0.083017
     18 H7          3.1240   -1.7240    3.4490 hc        1 MOL      0.083017
     19 N2          1.3190   -4.2680    0.4590 n         1 MOL     -0.144963
     20 C7          1.4500   -5.4730   -0.4430 c3        1 MOL      0.048882
     21 C8          2.7150   -5.5180   -1.2860 c         1 MOL      0.387058
     22 O5          3.2220   -6.5900   -1.5030 o         1 MOL     -0.524971
     23 C9          0.2080   -5.4180   -1.3840 c3        1 MOL     -0.059849
     24 C10        -1.0670   -5.7010   -0.5920 c3        1 MOL      0.036627
     25 C11        -2.1850   -5.9690   -1.6170 c3        1 MOL     -0.034103
     26 C12        -3.4900   -6.4340   -0.9620 c3        1 MOL      0.062931
     27 N3         -4.5460   -6.4910   -1.9630 n4        1 MOL     -0.218003
     28 H8          1.2170   -3.3960   -0.0450 hn        1 MOL      0.101112
     29 H9          1.4900   -6.3860    0.1430 h1        1 MOL      0.093555
     30 H10         0.3000   -6.2330   -2.0980 hc        1 MOL      0.011549
     31 H11         0.0890   -4.5300   -2.0130 hc        1 MOL      0.011549
     32 H12        -1.3800   -4.9060    0.0850 hc        1 MOL      0.025088
     33 H13        -0.8810   -6.5750    0.0220 hc        1 MOL      0.025088
     34 H14        -1.9060   -6.8210   -2.2400 hc        1 MOL      0.032937
     35 H15        -2.4360   -5.1150   -2.2480 hc        1 MOL      0.032937
     36 H16        -3.8260   -5.7520   -0.1790 hx        1 MOL      0.065675
     37 H17        -3.3730   -7.3890   -0.4520 hx        1 MOL      0.065675
     38 H18        -4.3510   -7.0130   -2.8030 hn        1 MOL      0.237684
     39 H19        -5.4020   -6.9030   -1.6250 hn        1 MOL      0.237684
     40 H20        -4.8810   -5.5820   -2.2450 hn        1 MOL      0.237684
     41 N4          3.2820   -4.3420   -1.5940 n         1 MOL     -0.010804
     42 C13         4.5950   -4.2640   -2.2970 c3        1 MOL      0.034722
     43 C14         5.7420   -3.9940   -1.2550 c         1 MOL      0.327220
     44 O6          6.9360   -3.9260   -1.7020 o         1 MOL     -0.512092
     45 C15         4.4910   -3.1670   -3.4300 c3        1 MOL     -0.253766
     46 C16         4.1050   -1.7920   -2.9170 c         1 MOL      0.842119
     47 O7          4.9770   -1.1710   -2.2610 o         1 MOL     -0.728123
     48 O8          2.9250   -1.3190   -3.0190 o         1 MOL     -0.728123
     49 H21         2.9430   -3.4570   -1.2470 hn        1 MOL     -0.146868
     50 H22         4.9060   -5.1250   -2.8940 h1        1 MOL      0.116331
     51 H23         3.6420   -3.4280   -4.0580 hc        1 MOL      0.070420
     52 H24         5.4340   -2.9830   -3.9550 hc        1 MOL      0.070420
     53 N5          5.3820   -3.6560   -0.0270 n         1 MOL     -0.090281
     54 C17         6.3480   -3.3800    1.0320 c3        1 MOL     -0.206229
     55 C18         6.8000   -1.9190    1.1050 c         1 MOL      0.567551
     56 O9          7.1820   -1.4590    2.1600 o         1 MOL     -0.556083
     57 H25         4.4070   -3.6940    0.2510 hn        1 MOL      0.183685
     58 H26         7.1680   -4.0740    0.8100 h1        1 MOL      0.112083
     59 H27         5.9070   -3.6550    1.9910 h1        1 MOL      0.112083
     60 N6          6.6960   -1.1460    0.0390 n         1 MOL     -0.228554
     61 C19         7.3330    0.2150   -0.0710 c3        1 MOL     -0.008798
     62 C20         6.3340    1.4200    0.1090 c         1 MOL      0.601909
     63 O10         5.1690    1.5030   -0.2910 o         1 MOL     -0.617280
     64 C21         8.0910    0.2660   -1.4200 c3        1 MOL     -0.253215
     65 C22         9.2900   -0.6380   -1.6430 c         1 MOL      0.721245
     66 N7          9.1030   -1.8970   -1.8910 n         1 MOL     -0.826129
     67 O11        10.4300   -0.1490   -1.6290 o         1 MOL     -0.605630
     68 H28         6.0300   -1.4290   -0.6620 hn        1 MOL      0.176334
     69 H29         7.9720    0.2260    0.8160 h1        1 MOL      0.069870
     70 H30         8.4860    1.2550   -1.6560 hc        1 MOL      0.071595
     71 H31         7.3270    0.0160   -2.1540 hc        1 MOL      0.071595
     72 H32         8.1780   -2.2760   -1.9970 hn        1 MOL      0.381699
     73 H33         9.9280   -2.4830   -1.9240 hn        1 MOL      0.381699
     74 N8          6.8550    2.3740    0.8170 n         1 MOL     -0.390383
     75 C23         6.3820    3.7320    0.9550 c3        1 MOL     -0.013956
     76 C24         4.9710    4.0010    1.5350 c         1 MOL      0.504820
     77 O12         4.7110    3.6960    2.7100 o         1 MOL     -0.503678
     78 H34         7.8490    2.2400    0.8700 hn        1 MOL      0.295882
     79 H35         6.3820    4.2310   -0.0120 h1        1 MOL      0.060172
     80 H36         7.1190    4.2670    1.5460 h1        1 MOL      0.060172
     81 N9          4.1220    4.6400    0.7520 n         1 MOL     -0.284655
     82 C25         2.6740    4.7220    0.9930 c3        1 MOL     -0.006251
     83 C26         1.9300    3.3520    0.9760 c         1 MOL      0.665692
     84 O13         2.3350    2.3800    0.2810 o         1 MOL     -0.629120
     85 C27         2.1470    5.5910   -0.1670 c3        1 MOL     -0.189376
     86 C28         2.8820    6.8370   -0.4170 ca        1 MOL      0.199852
     87 C29         3.7320    6.9550   -1.5250 ca        1 MOL     -0.226686
     88 C30         2.6480    8.0030    0.3530 ca        1 MOL     -0.226686
     89 C31         4.2860    8.2590   -1.9240 ca        1 MOL     -0.221810
     90 C32         3.1760    9.2350   -0.0340 ca        1 MOL     -0.221810
     91 C33         4.0550    9.3830   -1.1720 ca        1 MOL      0.293255
     92 O14         4.5930   10.5980   -1.4470 oh        1 MOL     -0.437628
     93 H37         4.4960    5.1010   -0.0560 hn        1 MOL      0.151457
     94 H38         2.5620    5.1460    1.9860 h1        1 MOL      0.077381
     95 H39         1.1270    5.9350   -0.0880 hc        1 MOL      0.069449
     96 H40         2.1410    5.0190   -1.0990 hc        1 MOL      0.069449
     97 H41         4.0250    6.0940   -2.1050 ha        1 MOL      0.156411
     98 H42         2.1110    8.0310    1.2930 ha        1 MOL      0.156411
     99 H43         4.8730    8.3440   -2.8310 ha        1 MOL      0.149426
    100 H44         2.9180   10.0510    0.6160 ha        1 MOL      0.149426
    101 H45         5.2770   10.5490   -2.1130 ho        1 MOL      0.353757
    102 N10         0.8020    3.2320    1.7070 n         1 MOL     -0.679065
    103 C34         0.1560    1.9840    2.0890 c3        1 MOL      0.060476
    104 C35        -0.2140    1.0080    0.9480 c         1 MOL      0.391469
    105 O15         0.5980    0.3810    0.3740 o         1 MOL     -0.286237
    106 C36         1.0210    1.2460    3.1350 c3        1 MOL      0.531973
    107 C37         0.1130    0.3310    4.0030 c3        1 MOL     -0.192474
    108 C38         1.6730    2.1630    4.0800 c3        1 MOL     -0.419208
    109 C39        -0.7900    1.0530    5.0370 c3        1 MOL     -0.339577
    110 H46         0.5170    4.0750    2.1710 hn        1 MOL      0.334209
    111 H47        -0.7450    2.3320    2.6080 h1        1 MOL      0.087072
    112 H48         1.7730    0.6260    2.6330 hc        1 MOL     -0.063011
    113 H49         0.6890   -0.3840    4.5910 hc        1 MOL      0.069278
    114 H50        -0.5080   -0.2350    3.3040 hc        1 MOL      0.069278
    115 H51         2.5250    2.5420    3.5050 hc        1 MOL      0.097597
    116 H52         1.0770    2.9900    4.4570 hc        1 MOL      0.097597
    117 H53         2.1030    1.5020    4.8380 hc        1 MOL      0.097597
    118 H54        -0.2140    1.5760    5.8010 hc        1 MOL      0.088040
    119 H55        -1.3590    1.8500    4.5610 hc        1 MOL      0.088040
    120 H56        -1.3700    0.3100    5.5690 hc        1 MOL      0.088040
    121 N11        -1.5050    0.7800    0.8230 n         1 MOL     -0.431093
    122 C40        -2.0100   -0.2630   -0.0250 c3        1 MOL      0.014874
    123 C41        -3.4140   -0.2000   -0.5590 c         1 MOL      0.503521
    124 O16        -3.8910   -1.0770   -1.3470 o         1 MOL     -0.543548
    125 C42        -1.8590   -1.6180    0.6780 c3        1 MOL      0.262242
    126 O17        -2.5670   -1.4820    1.8990 oh        1 MOL     -0.626637
    127 H57        -2.1530    1.2750    1.4130 hn        1 MOL      0.276739
    128 H58        -1.3550   -0.3170   -0.8960 h1        1 MOL      0.032107
    129 H59        -0.8130   -1.8140    0.9270 h1        1 MOL      0.005800
    130 H60        -2.2750   -2.4260    0.0730 h1        1 MOL      0.005800
    131 H61        -2.3530   -2.2250    2.4720 ho        1 MOL      0.402614
    132 N12        -4.1300    0.8970   -0.2210 n         1 MOL     -0.453708
    133 C43        -5.5970    0.9260   -0.5250 c3        1 MOL      0.185013
    134 C44        -5.8820    1.3780   -2.0060 c         1 MOL      0.631557
    135 O18        -4.9790    1.9310   -2.6900 o         1 MOL     -0.575204
    136 C45        -6.2110    1.7830    0.5530 c3        1 MOL     -0.351948
    137 H62        -3.6120    1.6400    0.2230 hn        1 MOL      0.271329
    138 H63        -5.9650   -0.1000   -0.5520 h1        1 MOL      0.084255
    139 H64        -7.2960    1.8620    0.4700 hc        1 MOL      0.110054
    140 H65        -6.0840    1.1640    1.4470 hc        1 MOL      0.110054
    141 H66        -5.7920    2.7780    0.6870 hc        1 MOL      0.110054
    142 N13        -7.1180    1.2240   -2.5520 n         1 MOL     -0.682353
    143 C46        -8.1750    0.3370   -2.0410 c3        1 MOL      0.317049
    144 C47        -9.4470    0.7640   -2.7950 c         1 MOL      0.400545
    145 O19        -9.4770    0.9350   -4.0140 o         1 MOL     -0.508522
    146 C48        -7.7700   -1.0610   -2.3470 c3        1 MOL     -0.213603
    147 H67        -7.1830    1.5410   -3.5080 hn        1 MOL      0.353073
    148 H68        -8.2890    0.5030   -0.9670 h1        1 MOL     -0.033772
    149 H69        -7.5320   -1.1880   -3.3980 hc        1 MOL      0.065327
    150 H70        -6.8160   -1.3700   -1.9120 hc        1 MOL      0.065327
    151 H71        -8.5500   -1.7220   -1.9730 hc        1 MOL      0.065327
    152 N14       -10.6530    0.9120   -2.2010 n         1 MOL     -0.370310
    153 C49       -10.7590    0.7540   -0.7050 c3        1 MOL     -0.220352
    154 C50       -10.2650    1.9330    0.1910 c         1 MOL      0.449229
    155 O20        -9.7840    1.6120    1.3010 o         1 MOL     -0.546027
    156 C51       -12.2320    0.5750   -0.2620 c3        1 MOL      0.211961
    157 C52       -12.3950    0.0330    1.1630 c3        1 MOL     -0.264509
    158 C53       -13.8220   -0.3980    1.3230 c         1 MOL      0.680205
    159 O21       -14.0350   -1.7050    1.3920 o         1 MOL     -0.659403
    160 O22       -14.6840    0.4320    1.2330 o         1 MOL     -0.659403
    161 H72       -11.4760    1.2900   -2.6480 hn        1 MOL      0.292147
    162 H73       -10.1610   -0.0750   -0.3130 h1        1 MOL      0.154331
    163 H74       -12.6430   -0.1780   -0.9380 hc        1 MOL     -0.005666
    164 H75       -12.7920    1.4890   -0.4210 hc        1 MOL     -0.005666
    165 H76       -12.0700    0.6930    1.9690 hc        1 MOL      0.055638
    166 H77       -11.7970   -0.8780    1.1530 hc        1 MOL      0.055638
    167 N15       -10.3700    3.1650   -0.1970 n         1 MOL     -0.272032
    168 C54       -10.0070    4.3090    0.6140 c3        1 MOL     -0.049656
    169 H78        -9.8190    3.9840    1.6370 h1        1 MOL      0.063463
    170 H79        -9.1060    4.7700    0.2080 h1        1 MOL      0.063463
    171 H80       -10.8210    5.0330    0.6080 h1        1 MOL      0.063463
    172 H81       -10.9540    3.4430   -0.9710 hn        1 MOL      0.267113
    173 Ca1         2.9230    0.2470   -0.9440 Ca        1 MOL      1.722959
    174 O23         3.8090    1.6140   -3.2830 oh        1 MOL     -0.802050
    175 H82         4.5070    1.3490   -3.8770 ho        1 MOL      0.397973
    176 H83         3.5680    2.4920   -3.5630 ho        1 MOL      0.397973
    177 O24         0.7000   -1.8230   -1.8050 oh        1 MOL     -0.802050
    178 H84         1.4310   -1.7850   -2.4230 ho        1 MOL      0.397973
    179 H85        -0.0660   -1.9930   -2.3560 ho        1 MOL      0.397973
    180 O25         0.9930    1.2020   -2.6340 oh        1 MOL     -0.802050
    181 H86         0.9190    1.3890   -3.5770 ho        1 MOL      0.397973
    182 H87         0.2330    1.6480   -2.2430 ho        1 MOL      0.397973
@<TRIPOS>BOND
     1    1    2 1   
     2    1    4 1   
     3    1    5 1   
     4    1    6 1   
     5    2    3 2   
     6    2    7 1   
     7    7    8 1   
     8    7   15 1   
     9    8    9 1   
    10    8   11 1   
    11    8   16 1   
    12    9   10 2   
    13    9   19 1   
    14   11   12 1   
    15   11   17 1   
    16   11   18 1   
    17   12   13 1   
    18   12   14 1   
    19   19   20 1   
    20   19   28 1   
    21   20   21 1   
    22   20   23 1   
    23   20   29 1   
    24   21   22 2   
    25   21   41 1   
    26   23   24 1   
    27   23   30 1   
    28   23   31 1   
    29   24   25 1   
    30   24   32 1   
    31   24   33 1   
    32   25   26 1   
    33   25   34 1   
    34   25   35 1   
    35   26   27 1   
    36   26   36 1   
    37   26   37 1   
    38   27   38 1   
    39   27   39 1   
    40   27   40 1   
    41   41   42 1   
    42   41   49 1   
    43   42   43 1   
    44   42   45 1   
    45   42   50 1   
    46   43   44 2   
    47   43   53 1   
    48   45   46 1   
    49   45   51 1   
    50   45   52 1   
    51   46   47 1   
    52   46   48 1   
    53   53   54 1   
    54   53   57 1   
    55   54   55 1   
    56   54   58 1   
    57   54   59 1   
    58   55   56 2   
    59   55   60 1   
    60   60   61 1   
    61   60   68 1   
    62   61   62 1   
    63   61   64 1   
    64   61   69 1   
    65   62   63 2   
    66   62   74 1   
    67   64   65 1   
    68   64   70 1   
    69   64   71 1   
    70   65   66 1   
    71   65   67 2   
    72   66   72 1   
    73   66   73 1   
    74   74   75 1   
    75   74   78 1   
    76   75   76 1   
    77   75   79 1   
    78   75   80 1   
    79   76   77 2   
    80   76   81 1   
    81   81   82 1   
    82   81   93 1   
    83   82   83 1   
    84   82   85 1   
    85   82   94 1   
    86   83   84 2   
    87   83  102 1   
    88   85   86 1   
    89   85   95 1   
    90   85   96 1   
    91   86   87 ar  
    92   86   88 ar  
    93   87   89 ar  
    94   87   97 1   
    95   88   90 ar  
    96   88   98 1   
    97   89   91 ar  
    98   89   99 1   
    99   90   91 ar  
   100   90  100 1   
   101   91   92 1   
   102   92  101 1   
   103  102  103 1   
   104  102  110 1   
   105  103  104 1   
   106  103  106 1   
   107  103  111 1   
   108  104  105 2   
   109  104  121 1   
   110  106  107 1   
   111  106  108 1   
   112  106  112 1   
   113  107  109 1   
   114  107  113 1   
   115  107  114 1   
   116  108  115 1   
   117  108  116 1   
   118  108  117 1   
   119  109  118 1   
   120  109  119 1   
   121  109  120 1   
   122  121  122 1   
   123  121  127 1   
   124  122  123 1   
   125  122  125 1   
   126  122  128 1   
   127  123  124 2   
   128  123  132 1   
   129  125  126 1   
   130  125  129 1   
   131  125  130 1   
   132  126  131 1   
   133  132  133 1   
   134  132  137 1   
   135  133  134 1   
   136  133  136 1   
   137  133  138 1   
   138  134  135 2   
   139  134  142 1   
   140  136  139 1   
   141  136  140 1   
   142  136  141 1   
   143  142  143 1   
   144  142  147 1   
   145  143  144 1   
   146  143  146 1   
   147  143  148 1   
   148  144  145 2   
   149  144  152 1   
   150  146  149 1   
   151  146  150 1   
   152  146  151 1   
   153  152  153 1   
   154  152  161 1   
   155  153  154 1   
   156  153  156 1   
   157  153  162 1   
   158  154  155 2   
   159  154  167 1   
   160  156  157 1   
   161  156  163 1   
   162  156  164 1   
   163  157  158 1   
   164  157  165 1   
   165  157  166 1   
   166  158  159 1   
   167  158  160 1   
   168  167  168 1   
   169  167  172 1   
   170  168  169 1   
   171  168  170 1   
   172  168  171 1   
   173  174  175 1   
   174  174  176 1   
   175  177  178 1   
   176  177  179 1   
   177  180  181 1   
   178  180  182 1   
@<TRIPOS>SUBSTRUCTURE
     1 MOL         1 TEMP              0 ****  ****    0 ROOT
