@<TRIPOS>MOLECULE
MOL
  185   180     1     0     0
SMALL
resp


@<TRIPOS>ATOM
      1 C1         -6.2210    1.1490   -3.7620 c3        1 MOL     -0.377772
      2 C2         -6.7160    1.2730   -2.3340 c         1 MOL      0.503043
      3 O1         -5.9890    1.0130   -1.4230 o         1 MOL     -0.492394
      4 H1         -7.0430    1.3470   -4.4490 hc        1 MOL      0.106888
      5 H2         -5.4220    1.8690   -3.9340 hc        1 MOL      0.106888
      6 H3         -5.8450    0.1400   -3.9290 hc        1 MOL      0.106888
      7 N1         -7.9830    1.6040   -2.0940 n         1 MOL     -0.375256
      8 C3         -8.5380    1.6330   -0.7080 c3        1 MOL      0.061083
      9 C4         -8.2260    0.4340    0.2390 c         1 MOL      0.475336
     10 O2         -8.1060    0.6010    1.4740 o         1 MOL     -0.501951
     11 C5         -8.2720    3.0060   -0.0730 c3        1 MOL     -0.185212
     12 C6         -8.7410    4.2030   -0.9310 c         1 MOL      0.670369
     13 O3         -8.0000    5.2260   -1.0910 o         1 MOL     -0.667901
     14 O4         -9.8110    4.0270   -1.5680 o         1 MOL     -0.667901
     15 H4         -8.6560    1.6620   -2.8470 hn        1 MOL      0.286656
     16 H5         -9.6260    1.5260   -0.7980 h1        1 MOL      0.031590
     17 H6         -7.1900    3.0860    0.0840 hc        1 MOL      0.070405
     18 H7         -8.6220    3.1630    0.9400 hc        1 MOL      0.070405
     19 N2         -8.1200   -0.7740   -0.2710 n         1 MOL     -0.569130
     20 C7         -7.9450   -2.0010    0.5670 c3        1 MOL      0.121583
     21 C8         -6.4380   -2.4250    0.5970 c         1 MOL      0.574749
     22 O5         -6.1490   -3.6310    0.8590 o         1 MOL     -0.609219
     23 C9         -8.8160   -3.1790    0.0820 c3        1 MOL      0.106350
     24 C10       -10.3230   -2.7250    0.0450 c3        1 MOL     -0.048503
     25 C11       -10.9940   -4.0470   -0.2710 c3        1 MOL     -0.115379
     26 C12       -12.5180   -3.8100   -0.3420 c3        1 MOL      0.007988
     27 N3        -13.0850   -4.3160   -1.5320 n4        1 MOL     -0.295733
     28 H8         -8.2470   -0.8350   -1.2740 hn        1 MOL      0.269513
     29 H9         -8.1810   -1.7810    1.6090 h1        1 MOL      0.082942
     30 H10        -8.7010   -3.9910    0.7860 hc        1 MOL     -0.004641
     31 H11        -8.4140   -3.5370   -0.8650 hc        1 MOL     -0.004641
     32 H12       -10.5360   -2.0020   -0.7330 hc        1 MOL      0.049494
     33 H13       -10.6420   -2.4180    1.0460 hc        1 MOL      0.049494
     34 H14       -10.7530   -4.7020    0.5650 hc        1 MOL      0.066763
     35 H15       -10.6490   -4.4800   -1.2130 hc        1 MOL      0.066763
     36 H16       -12.6520   -2.7340   -0.3470 hx        1 MOL      0.099230
     37 H17       -13.0690   -4.1270    0.5470 hx        1 MOL      0.099230
     38 H18       -13.9750   -3.9070   -1.7630 hn        1 MOL      0.296788
     39 H19       -12.5310   -4.1950   -2.3680 hn        1 MOL      0.296788
     40 H20       -13.3750   -5.2870   -1.4880 hn        1 MOL      0.296788
     41 N4         -5.3830   -1.6520    0.1500 n         1 MOL     -0.485295
     42 C13        -3.9660   -2.0410    0.2430 c3        1 MOL      0.086051
     43 C14        -3.5120   -2.3110    1.6640 c         1 MOL      0.531629
     44 O6         -3.7400   -1.5220    2.6430 o         1 MOL     -0.510265
     45 C15        -3.1570   -0.9910   -0.5360 c3        1 MOL     -0.225749
     46 C16        -1.6570   -0.9760   -0.5410 c         1 MOL      0.643037
     47 O7         -0.9960   -0.8840    0.5380 o         1 MOL     -0.689718
     48 O8         -1.0190   -1.1700   -1.6020 o         1 MOL     -0.689718
     49 H21        -5.6400   -0.7730   -0.2740 hn        1 MOL      0.316708
     50 H22        -3.8370   -2.9720   -0.2960 h1        1 MOL      0.065092
     51 H23        -3.4700   -0.0050   -0.1960 hc        1 MOL      0.103083
     52 H24        -3.4650   -1.1540   -1.5610 hc        1 MOL      0.103083
     53 N5         -2.9440   -3.5170    1.8900 n         1 MOL     -0.265208
     54 C17        -2.4020   -3.9540    3.2360 c3        1 MOL     -0.211388
     55 C18        -1.2840   -3.0760    3.8430 c         1 MOL      0.554869
     56 O9         -0.8200   -3.3750    4.9420 o         1 MOL     -0.546579
     57 H25        -2.6840   -3.9850    1.0460 hn        1 MOL      0.188206
     58 H26        -1.9920   -4.9660    3.2420 h1        1 MOL      0.132210
     59 H27        -3.2680   -4.0140    3.8880 h1        1 MOL      0.132210
     60 N6         -0.8240   -1.9680    3.1560 n         1 MOL     -0.251417
     61 C19        -0.1110   -0.9090    3.8790 c3        1 MOL      0.034817
     62 C20        -0.5080    0.5470    3.6420 c         1 MOL      0.440400
     63 O10         0.1860    1.4830    4.0120 o         1 MOL     -0.513748
     64 C21         1.3950   -1.0840    3.8040 c3        1 MOL     -0.364685
     65 C22         1.9620   -0.8190    2.4450 c         1 MOL      0.644377
     66 N7          2.4200    0.3960    2.1550 n         1 MOL     -0.645717
     67 O11         2.0430   -1.7220    1.6010 o         1 MOL     -0.619124
     68 H28        -1.0450   -1.7920    2.1910 hn        1 MOL      0.176660
     69 H29        -0.4480   -1.0230    4.9120 h1        1 MOL      0.112988
     70 H30         1.6730   -2.1030    4.0650 hc        1 MOL      0.131979
     71 H31         1.7840   -0.4130    4.5540 hc        1 MOL      0.131979
     72 H32         2.3290    1.1110    2.8660 hn        1 MOL      0.331200
     73 H33         2.7520    0.5200    1.2130 hn        1 MOL      0.331200
     74 N8         -1.7430    0.7110    3.0490 n         1 MOL     -0.257384
     75 C23        -2.3340    1.9730    2.5950 c3        1 MOL     -0.030267
     76 C24        -1.4230    2.8140    1.6700 c         1 MOL      0.444321
     77 O12        -1.4640    4.0250    1.9440 o         1 MOL     -0.489745
     78 H34        -2.3690   -0.0720    2.9540 hn        1 MOL      0.145386
     79 H35        -2.5220    2.5480    3.4990 h1        1 MOL      0.089460
     80 H36        -3.2950    1.8720    2.0870 h1        1 MOL      0.089460
     81 N9         -0.8280    2.1830    0.6220 n         1 MOL     -0.344676
     82 C25         0.0450    2.8650   -0.3510 c3        1 MOL      0.234180
     83 C26         1.3400    2.1400   -0.6160 c         1 MOL      0.240246
     84 O13         1.4160    0.9180   -0.7350 o         1 MOL     -0.538316
     85 C27        -0.7460    3.1400   -1.6560 c3        1 MOL     -0.062911
     86 C28        -1.9980    3.8800   -1.3520 ca        1 MOL      0.002696
     87 C29        -1.9660    5.2280   -1.0240 ca        1 MOL     -0.200592
     88 C30        -3.2200    3.2080   -1.4740 ca        1 MOL     -0.200592
     89 C31        -3.1650    5.9390   -0.8160 ca        1 MOL     -0.142940
     90 C32        -4.4130    4.0060   -1.3560 ca        1 MOL     -0.142940
     91 C33        -4.4170    5.3230   -0.9810 ca        1 MOL      0.250414
     92 O14        -5.5280    6.0610   -0.6020 oh        1 MOL     -0.497014
     93 H37        -0.9580    1.1920    0.4800 hn        1 MOL      0.248928
     94 H38         0.2640    3.8500    0.0610 h1        1 MOL      0.002280
     95 H39        -0.9470    2.1840   -2.1560 hc        1 MOL      0.045391
     96 H40        -0.2060    3.7590   -2.3660 hc        1 MOL      0.045391
     97 H41        -1.0000    5.7110   -1.0000 ha        1 MOL      0.113020
     98 H42        -3.2420    2.1470   -1.6600 ha        1 MOL      0.113020
     99 H43        -3.1210    7.0030   -0.6300 ha        1 MOL      0.119003
    100 H44        -5.3650    3.5090   -1.4700 ha        1 MOL      0.119003
    101 H45        -6.3230    5.5650   -0.8050 ho        1 MOL      0.382596
    102 N10         2.3930    2.9180   -0.7880 n         1 MOL     -0.265057
    103 C34         3.7360    2.4770   -1.2180 c3        1 MOL      0.209683
    104 C35         4.6820    2.1740   -0.0880 c         1 MOL      0.070787
    105 O15         5.1480    1.0480   -0.0660 o         1 MOL     -0.343431
    106 C36         4.3550    3.4390   -2.2170 c3        1 MOL      0.123655
    107 C37         3.4540    3.7370   -3.3960 c3        1 MOL      0.002362
    108 C38         5.7630    3.0120   -2.7200 c3        1 MOL     -0.473792
    109 C39         3.0470    2.4910   -4.3270 c3        1 MOL     -0.255212
    110 H46         2.2350    3.8790   -0.5120 hn        1 MOL      0.245043
    111 H47         3.6520    1.5180   -1.7350 h1        1 MOL      0.044731
    112 H48         4.3790    4.3800   -1.6760 hc        1 MOL     -0.041485
    113 H49         3.8780    4.4950   -4.0570 hc        1 MOL      0.013966
    114 H50         2.5720    4.2400   -3.0220 hc        1 MOL      0.013966
    115 H51         6.4260    2.8270   -1.8670 hc        1 MOL      0.141392
    116 H52         5.6350    2.0530   -3.2170 hc        1 MOL      0.141392
    117 H53         6.2230    3.8490   -3.2540 hc        1 MOL      0.141392
    118 H54         2.3110    2.7300   -5.1010 hc        1 MOL      0.080206
    119 H55         3.9840    2.0630   -4.6650 hc        1 MOL      0.080206
    120 H56         2.6500    1.6660   -3.7330 hc        1 MOL      0.080206
    121 N11         4.7630    3.0140    0.9370 n         1 MOL     -0.216787
    122 C40         5.4580    2.7510    2.1870 c3        1 MOL      0.118905
    123 C41         6.9580    2.4430    2.1410 c         1 MOL      0.201902
    124 O16         7.4810    1.7780    3.0960 o         1 MOL     -0.430153
    125 C42         5.0830    3.8710    3.2020 c3        1 MOL      0.197896
    126 O17         3.7010    3.8260    3.3180 oh        1 MOL     -0.582506
    127 H57         4.1540    3.8220    0.9620 hn        1 MOL      0.234282
    128 H58         4.9890    1.8310    2.5240 h1        1 MOL      0.079338
    129 H59         5.4880    4.7930    2.7710 h1        1 MOL      0.018760
    130 H60         5.6080    3.6420    4.1240 h1        1 MOL      0.018760
    131 H61         3.4270    4.6190    3.7830 ho        1 MOL      0.414605
    132 N12         7.7260    2.8870    1.0950 n         1 MOL     -0.227429
    133 C43         9.1030    2.4010    0.8190 c3        1 MOL      0.226177
    134 C44         9.1730    0.8460    0.8050 c         1 MOL      0.495821
    135 O18        10.2000    0.2820    1.1540 o         1 MOL     -0.518042
    136 C45        10.1420    3.0460    1.7730 c3        1 MOL     -0.377114
    137 H62         7.3340    3.6500    0.5600 hn        1 MOL      0.211804
    138 H63         9.4030    2.7660   -0.1670 h1        1 MOL      0.021896
    139 H64        10.0460    2.5960    2.7510 hc        1 MOL      0.111524
    140 H65        11.1230    2.7200    1.4340 hc        1 MOL      0.111524
    141 H66        10.0420    4.1380    1.7960 hc        1 MOL      0.111524
    142 N13         8.0740    0.1770    0.3990 n         1 MOL     -0.513947
    143 C46         7.8360   -1.2180    0.5180 c3        1 MOL      0.427182
    144 C47         7.1480   -1.7420   -0.7010 c         1 MOL      0.290973
    145 O19         6.7240   -1.0340   -1.6450 o         1 MOL     -0.409529
    146 C48         7.0160   -1.3880    1.7480 c3        1 MOL     -0.273167
    147 H67         7.3540    0.7630    0.0100 hn        1 MOL      0.126788
    148 H68         8.7510   -1.8020    0.6340 h1        1 MOL      0.002513
    149 H69         6.9740   -2.4350    2.0500 hc        1 MOL      0.082848
    150 H70         7.4750   -0.8340    2.5770 hc        1 MOL      0.082848
    151 H71         5.9880   -1.0460    1.6320 hc        1 MOL      0.082848
    152 N14         7.2000   -3.0970   -0.8210 n         1 MOL     -0.438936
    153 C49         6.8940   -3.9130   -1.9580 c3        1 MOL      0.012815
    154 C50         7.3310   -3.3780   -3.3380 c         1 MOL      0.400129
    155 O20         6.5790   -3.5900   -4.3200 o         1 MOL     -0.486274
    156 C51         5.3830   -4.2540   -1.8720 c3        1 MOL      0.000136
    157 C52         4.9390   -4.8770   -0.5140 c3        1 MOL     -0.134926
    158 C53         3.4320   -5.1380   -0.4040 c         1 MOL      0.633714
    159 O21         3.0410   -6.3370   -0.3310 o         1 MOL     -0.692402
    160 O22         2.6670   -4.1650   -0.2750 o         1 MOL     -0.692402
    161 H72         7.7040   -3.4170   -0.0040 hn        1 MOL      0.275064
    162 H73         7.3740   -4.8530   -1.6490 h1        1 MOL      0.084033
    163 H74         5.1840   -4.9970   -2.6440 hc        1 MOL      0.012345
    164 H75         4.8420   -3.3680   -2.1800 hc        1 MOL      0.012345
    165 H76         5.0610   -4.0910    0.2270 hc        1 MOL      0.032582
    166 H77         5.4210   -5.8430   -0.4240 hc        1 MOL      0.032582
    167 N15         8.4760   -2.7180   -3.4510 n         1 MOL     -0.295860
    168 C54         9.0910   -2.0040   -4.6100 c3        1 MOL     -0.017779
    169 H78         8.4910   -2.1790   -5.5030 h1        1 MOL      0.060348
    170 H79         9.1290   -0.9350   -4.4010 h1        1 MOL      0.060348
    171 H80        10.1010   -2.3790   -4.7740 h1        1 MOL      0.060348
    172 H81         9.0840   -2.7640   -2.6500 hn        1 MOL      0.239317
    173 Ca1         1.1970   -1.9290   -0.7350 Ca        1 MOL      1.782358
    174 O23         3.7520   -1.1480   -0.7660 oh        1 MOL     -0.861624
    175 H82         4.2990   -1.8490   -1.1020 ho        1 MOL      0.420699
    176 H83         4.3710   -0.4460   -0.5500 ho        1 MOL      0.420699
    177 O24         0.6280   -4.1000   -2.3670 oh        1 MOL     -0.861624
    178 H84         1.3620   -4.1670   -2.9730 ho        1 MOL      0.420699
    179 H85         0.6290   -4.9420   -1.8950 ho        1 MOL      0.420699
    180 O25        -0.2810   -3.6920    0.6590 oh        1 MOL     -0.861624
    181 H86        -1.0330   -4.2130    0.3600 ho        1 MOL      0.420699
    182 H87         0.2490   -4.3040    1.1630 ho        1 MOL      0.420699
    183 O26         2.3070   -1.7630   -3.2700 oh        1 MOL     -0.861624
    184 H88         3.2100   -1.8920   -3.5310 ho        1 MOL      0.420699
    185 H89         1.8590   -1.4910   -4.0660 ho        1 MOL      0.420699
@<TRIPOS>BOND
     1    1    2 1   
     2    1    4 1   
     3    1    5 1   
     4    1    6 1   
     5    2    3 2   
     6    2    7 1   
     7    7    8 1   
     8    7   15 1   
     9    8    9 1   
    10    8   11 1   
    11    8   16 1   
    12    9   10 2   
    13    9   19 1   
    14   11   12 1   
    15   11   17 1   
    16   11   18 1   
    17   12   13 1   
    18   12   14 1   
    19   19   20 1   
    20   19   28 1   
    21   20   21 1   
    22   20   23 1   
    23   20   29 1   
    24   21   22 2   
    25   21   41 1   
    26   23   24 1   
    27   23   30 1   
    28   23   31 1   
    29   24   25 1   
    30   24   32 1   
    31   24   33 1   
    32   25   26 1   
    33   25   34 1   
    34   25   35 1   
    35   26   27 1   
    36   26   36 1   
    37   26   37 1   
    38   27   38 1   
    39   27   39 1   
    40   27   40 1   
    41   41   42 1   
    42   41   49 1   
    43   42   43 1   
    44   42   45 1   
    45   42   50 1   
    46   43   44 2   
    47   43   53 1   
    48   45   46 1   
    49   45   51 1   
    50   45   52 1   
    51   46   47 1   
    52   46   48 1   
    53   53   54 1   
    54   53   57 1   
    55   54   55 1   
    56   54   58 1   
    57   54   59 1   
    58   55   56 2   
    59   55   60 1   
    60   60   61 1   
    61   60   68 1   
    62   61   62 1   
    63   61   64 1   
    64   61   69 1   
    65   62   63 2   
    66   62   74 1   
    67   64   65 1   
    68   64   70 1   
    69   64   71 1   
    70   65   66 1   
    71   65   67 2   
    72   66   72 1   
    73   66   73 1   
    74   74   75 1   
    75   74   78 1   
    76   75   76 1   
    77   75   79 1   
    78   75   80 1   
    79   76   77 2   
    80   76   81 1   
    81   81   82 1   
    82   81   93 1   
    83   82   83 1   
    84   82   85 1   
    85   82   94 1   
    86   83   84 2   
    87   83  102 1   
    88   85   86 1   
    89   85   95 1   
    90   85   96 1   
    91   86   87 ar  
    92   86   88 ar  
    93   87   89 ar  
    94   87   97 1   
    95   88   90 ar  
    96   88   98 1   
    97   89   91 ar  
    98   89   99 1   
    99   90   91 ar  
   100   90  100 1   
   101   91   92 1   
   102   92  101 1   
   103  102  103 1   
   104  102  110 1   
   105  103  104 1   
   106  103  106 1   
   107  103  111 1   
   108  104  105 2   
   109  104  121 1   
   110  106  107 1   
   111  106  108 1   
   112  106  112 1   
   113  107  109 1   
   114  107  113 1   
   115  107  114 1   
   116  108  115 1   
   117  108  116 1   
   118  108  117 1   
   119  109  118 1   
   120  109  119 1   
   121  109  120 1   
   122  121  122 1   
   123  121  127 1   
   124  122  123 1   
   125  122  125 1   
   126  122  128 1   
   127  123  124 2   
   128  123  132 1   
   129  125  126 1   
   130  125  129 1   
   131  125  130 1   
   132  126  131 1   
   133  132  133 1   
   134  132  137 1   
   135  133  134 1   
   136  133  136 1   
   137  133  138 1   
   138  134  135 2   
   139  134  142 1   
   140  136  139 1   
   141  136  140 1   
   142  136  141 1   
   143  142  143 1   
   144  142  147 1   
   145  143  144 1   
   146  143  146 1   
   147  143  148 1   
   148  144  145 2   
   149  144  152 1   
   150  146  149 1   
   151  146  150 1   
   152  146  151 1   
   153  152  153 1   
   154  152  161 1   
   155  153  154 1   
   156  153  156 1   
   157  153  162 1   
   158  154  155 2   
   159  154  167 1   
   160  156  157 1   
   161  156  163 1   
   162  156  164 1   
   163  157  158 1   
   164  157  165 1   
   165  157  166 1   
   166  158  159 1   
   167  158  160 1   
   168  167  168 1   
   169  167  172 1   
   170  168  169 1   
   171  168  170 1   
   172  168  171 1   
   173  174  175 1   
   174  174  176 1   
   175  177  178 1   
   176  177  179 1   
   177  180  181 1   
   178  180  182 1   
   179  183  184 1   
   180  183  185 1   
@<TRIPOS>SUBSTRUCTURE
     1 MOL         1 TEMP              0 ****  ****    0 ROOT
