@<TRIPOS>MOLECULE
MOL
  175   173     1     0     0
SMALL
resp


@<TRIPOS>ATOM
      1 C1         -6.8970    7.8130    1.9290 c3        1 MOL     -0.418717
      2 C2         -7.8590    7.0500    0.9890 c         1 MOL      0.607611
      3 O1         -8.2440    7.5440   -0.1210 o         1 MOL     -0.552197
      4 H1         -6.5910    7.1570    2.7440 hc        1 MOL      0.108061
      5 H2         -6.0170    8.1300    1.3690 hc        1 MOL      0.108061
      6 H3         -7.4040    8.6870    2.3360 hc        1 MOL      0.108061
      7 N1         -8.3780    5.8640    1.4670 n         1 MOL     -0.502299
      8 C3         -9.1790    4.9870    0.5490 c3        1 MOL      0.145530
      9 C4         -8.2630    4.3970   -0.5390 c         1 MOL      0.527609
     10 O2         -8.7070    4.1030   -1.6700 o         1 MOL     -0.515083
     11 C5         -9.7610    3.8550    1.4410 c3        1 MOL     -0.223574
     12 C6        -10.6040    2.8240    0.6610 c         1 MOL      0.672991
     13 O3        -11.2070    3.1450   -0.4020 o         1 MOL     -0.713562
     14 O4        -10.6480    1.6360    1.0820 o         1 MOL     -0.713562
     15 H4         -8.2080    5.6160    2.4280 hn        1 MOL      0.290675
     16 H5         -9.9160    5.6130    0.0580 h1        1 MOL      0.054577
     17 H6        -10.2730    4.2790    2.3070 hc        1 MOL      0.019212
     18 H7         -9.0000    3.2110    1.8660 hc        1 MOL      0.019212
     19 N2         -6.9940    4.1570   -0.1700 n         1 MOL     -0.412423
     20 C7         -6.1090    3.4390   -0.9870 c3        1 MOL      0.269498
     21 C8         -5.1940    2.6310   -0.0460 c         1 MOL      0.479286
     22 O5         -4.6000    3.2960    0.8000 o         1 MOL     -0.558183
     23 C9         -5.1890    4.3760   -1.7700 c3        1 MOL     -0.518121
     24 H8         -6.7170    4.4810    0.7440 hn        1 MOL      0.221424
     25 H9         -6.7310    2.7710   -1.5940 h1        1 MOL      0.034115
     26 H10        -4.4630    3.7490   -2.2960 hc        1 MOL      0.143518
     27 H11        -5.7680    5.0320   -2.4220 hc        1 MOL      0.143518
     28 H12        -4.6310    5.0150   -1.0860 hc        1 MOL      0.143518
     29 N3         -4.8880    1.3480   -0.1970 n         1 MOL     -0.409113
     30 C10        -5.4020    0.3060   -1.1270 c3        1 MOL     -0.023701
     31 C11        -5.6500   -1.0870   -0.5430 c         1 MOL      0.511753
     32 O6         -4.8230   -1.3820    0.3180 o         1 MOL     -0.506244
     33 C12        -4.4310    0.1370   -2.3180 c3        1 MOL     -0.066683
     34 C13        -2.9520   -0.0980   -1.9060 c         1 MOL      0.683833
     35 O7         -2.3460    0.6030   -1.0670 o         1 MOL     -0.720125
     36 O8         -2.2680   -1.0480   -2.3800 o         1 MOL     -0.720125
     37 H13        -4.1510    1.0790    0.4360 hn        1 MOL      0.311788
     38 H14        -6.3140    0.7160   -1.5740 h1        1 MOL      0.064852
     39 H15        -4.4040    1.0940   -2.8300 hc        1 MOL      0.010037
     40 H16        -4.8240   -0.6220   -3.0010 hc        1 MOL      0.010037
     41 N4         -6.6040   -1.8410   -1.0750 n         1 MOL     -0.409467
     42 C14        -7.0050   -3.1300   -0.4960 c3        1 MOL      0.065873
     43 C15        -6.8870   -4.3620   -1.3780 c         1 MOL      0.546231
     44 O9         -7.9070   -4.8740   -1.8060 o         1 MOL     -0.568117
     45 H17        -7.2030   -1.4950   -1.8190 hn        1 MOL      0.320866
     46 H18        -7.9880   -3.0810   -0.0450 h1        1 MOL      0.052930
     47 H19        -6.4050   -3.3210    0.3920 h1        1 MOL      0.052930
     48 N5         -5.7060   -4.8520   -1.7050 n         1 MOL     -0.500005
     49 C16        -4.3550   -4.5450   -1.2000 c3        1 MOL     -0.035519
     50 C17        -4.1670   -5.1630    0.1860 c         1 MOL      0.639277
     51 O10        -4.4040   -6.3380    0.3810 o         1 MOL     -0.559632
     52 C18        -3.2370   -4.8850   -2.2310 c3        1 MOL     -0.017751
     53 C19        -1.8950   -4.1720   -1.8610 c         1 MOL      0.402744
     54 N6         -0.8710   -4.2230   -2.6440 n         1 MOL     -0.667014
     55 O11        -1.7920   -3.4800   -0.9020 o         1 MOL     -0.520957
     56 H20        -5.7720   -5.5970   -2.3910 hn        1 MOL      0.303232
     57 H21        -4.3270   -3.4600   -1.0930 h1        1 MOL      0.094575
     58 H22        -3.5280   -4.6960   -3.2640 hc        1 MOL      0.051908
     59 H23        -3.0780   -5.9630   -2.2210 hc        1 MOL      0.051908
     60 H24        -0.9860   -4.7450   -3.5070 hn        1 MOL      0.320924
     61 H25         0.0380   -3.9830   -2.2700 hn        1 MOL      0.320924
     62 N7         -3.6850   -4.3570    1.2000 n         1 MOL     -0.296142
     63 C20        -3.3490   -4.8070    2.5570 c3        1 MOL     -0.196856
     64 C21        -1.9200   -5.2000    2.7900 c         1 MOL      0.639763
     65 O12        -1.6410   -5.9630    3.6940 o         1 MOL     -0.583124
     66 H26        -3.5160   -3.3940    0.9430 hn        1 MOL      0.191295
     67 H27        -4.0160   -5.6400    2.8000 h1        1 MOL      0.093583
     68 H28        -3.6050   -4.0470    3.2910 h1        1 MOL      0.093583
     69 N8         -1.0470   -4.6020    2.0070 n         1 MOL     -0.366013
     70 C22         0.4150   -4.8640    2.0600 c3        1 MOL     -0.029395
     71 C23         1.1180   -3.5230    1.9250 c         1 MOL      0.379124
     72 O13         0.5450   -2.6240    1.2850 o         1 MOL     -0.507687
     73 C24         0.9460   -5.8870    1.0570 c3        1 MOL      0.421377
     74 C25         0.6070   -7.3680    1.4170 c3        1 MOL     -0.536115
     75 O14         0.4250   -5.6380   -0.2420 oh        1 MOL     -0.570833
     76 H29        -1.2290   -4.1170    1.1320 hn        1 MOL      0.282807
     77 H30         0.7380   -5.3330    2.9890 h1        1 MOL      0.050911
     78 H31         2.0380   -5.9280    1.0100 h1        1 MOL      0.013055
     79 H32         1.0580   -5.1210   -0.7480 ho        1 MOL      0.355608
     80 H33         0.9420   -7.6170    2.4160 hc        1 MOL      0.131585
     81 H34        -0.4480   -7.6070    1.5320 hc        1 MOL      0.131585
     82 H35         1.1250   -7.9940    0.6750 hc        1 MOL      0.131585
     83 N9          2.2980   -3.3680    2.5350 n         1 MOL     -0.356873
     84 C26         3.2090   -2.2470    2.2170 c3        1 MOL      0.209304
     85 C27         4.0420   -2.6010    0.9490 c         1 MOL      0.208690
     86 O15         5.0620   -3.3230    1.0300 o         1 MOL     -0.577701
     87 C28         4.1330   -1.9360    3.4350 c3        1 MOL      0.377090
     88 C29         4.9280   -0.7080    3.1590 c3        1 MOL     -0.011185
     89 C30         3.2720   -1.8310    4.6520 c3        1 MOL     -0.354492
     90 C31         5.9780   -0.2250    4.2100 c3        1 MOL     -0.256276
     91 H36         2.7370   -4.1650    2.9730 hn        1 MOL      0.244414
     92 H37         2.7320   -1.3060    1.9570 h1        1 MOL     -0.042190
     93 H38         4.7860   -2.8010    3.5590 hc        1 MOL     -0.076783
     94 H39         4.2120    0.1100    3.0890 hc        1 MOL      0.007361
     95 H40         5.4320   -0.8100    2.1970 hc        1 MOL      0.007361
     96 H41         2.9570   -2.8110    5.0070 hc        1 MOL      0.069824
     97 H42         3.8460   -1.3580    5.4430 hc        1 MOL      0.069824
     98 H43         2.3760   -1.2470    4.4210 hc        1 MOL      0.069824
     99 H44         6.5430    0.5670    3.7220 hc        1 MOL      0.056733
    100 H45         5.4520    0.1200    5.0970 hc        1 MOL      0.056733
    101 H46         6.5760   -1.0720    4.5580 hc        1 MOL      0.056733
    102 N10         3.6920   -2.0200   -0.1540 n         1 MOL      0.041608
    103 C32         4.3310   -2.2670   -1.4610 c3        1 MOL      0.077133
    104 C33         5.4140   -1.2990   -1.9270 c         1 MOL      0.464858
    105 O16         6.0990   -1.5910   -2.9100 o         1 MOL     -0.529803
    106 C34         3.2700   -2.5010   -2.4760 c3        1 MOL     -0.422703
    107 C35         2.2680   -3.4740   -1.9520 c         1 MOL      0.705396
    108 O17         2.4830   -4.7290   -1.9740 o         1 MOL     -0.634977
    109 O18         1.1940   -3.0490   -1.3940 o         1 MOL     -0.634977
    110 H47         2.9260   -1.3750   -0.0270 hn        1 MOL      0.096205
    111 H48         4.8590   -3.2220   -1.5060 h1        1 MOL      0.105297
    112 H49         3.7700   -2.8770   -3.3640 hc        1 MOL      0.097778
    113 H50         2.8890   -1.5050   -2.7220 hc        1 MOL      0.097778
    114 N11         5.5970   -0.2220   -1.1590 n         1 MOL     -0.362792
    115 C36         6.8150    0.6170   -1.2640 c3        1 MOL      0.175529
    116 C37         6.4930    2.0520   -0.7940 c         1 MOL      0.337039
    117 O19         6.1300    2.1750    0.3550 o         1 MOL     -0.479085
    118 C38         7.8840    0.0710   -0.2990 c3        1 MOL     -0.131636
    119 C39         9.2250    0.7480   -0.3520 ca        1 MOL      0.081205
    120 C40         9.6740    1.5180    0.7130 ca        1 MOL     -0.153503
    121 C41        10.0960    0.5190   -1.4440 ca        1 MOL     -0.153503
    122 C42        10.9650    2.0790    0.6710 ca        1 MOL     -0.128732
    123 C43        11.3870    1.0660   -1.4270 ca        1 MOL     -0.128732
    124 C44        11.7970    1.8360   -0.3780 ca        1 MOL     -0.081224
    125 H51         4.8900   -0.0290   -0.4620 hn        1 MOL      0.205531
    126 H52         7.2070    0.6620   -2.2820 h1        1 MOL     -0.004684
    127 H53         8.0230   -1.0030   -0.4170 hc        1 MOL      0.079213
    128 H54         7.4660    0.1760    0.7030 hc        1 MOL      0.079213
    129 H55         8.9810    1.6800    1.5260 ha        1 MOL      0.131411
    130 H56         9.8610   -0.1570   -2.2500 ha        1 MOL      0.131411
    131 H57        11.2740    2.6090    1.5680 ha        1 MOL      0.102182
    132 H58        12.1170    0.8400   -2.1830 ha        1 MOL      0.102182
    133 H59        12.8120    2.2200   -0.3240 ha        1 MOL      0.086617
    134 N12         6.6590    3.1070   -1.6480 n         1 MOL     -0.139380
    135 C45         6.4750    4.5080   -1.1910 c3        1 MOL     -0.023193
    136 C46         5.1620    4.9790   -0.4000 c         1 MOL      0.585048
    137 O20         5.2240    6.0860    0.0830 o         1 MOL     -0.557886
    138 C47         6.6580    5.3510   -2.5260 c3        1 MOL     -0.273766
    139 C48         6.1720    4.3670   -3.5540 c3        1 MOL      0.087745
    140 C49         6.5470    3.0050   -3.0740 c3        1 MOL     -0.119757
    141 H60         7.3220    4.7100   -0.5380 h1        1 MOL      0.074686
    142 H61         6.1950    6.3320   -2.5990 hc        1 MOL      0.112533
    143 H62         7.7180    5.5500   -2.6170 hc        1 MOL      0.112533
    144 H63         5.0870    4.4260   -3.6070 hc        1 MOL      0.005395
    145 H64         6.5920    4.4420   -4.5610 hc        1 MOL      0.005395
    146 H65         5.7140    2.3520   -3.3440 h1        1 MOL      0.082057
    147 H66         7.5020    2.6950   -3.5270 h1        1 MOL      0.082057
    148 N13         4.1080    4.1740   -0.2530 n         1 MOL     -0.393694
    149 C50         2.8550    4.5630    0.4780 c3        1 MOL     -0.256843
    150 C51         3.1050    4.8670    1.9640 c         1 MOL      0.565278
    151 O21         2.2100    5.5370    2.5300 o         1 MOL     -0.544234
    152 C52         1.8830    3.3470    0.2710 c3        1 MOL     -0.240289
    153 C53         2.3320    2.0440    0.8920 c3        1 MOL      0.065168
    154 C54         1.4730    0.9520    0.4730 c         1 MOL      0.619548
    155 O22         1.8300    0.1990   -0.4480 o         1 MOL     -0.693517
    156 O23         0.2970    0.7410    0.9350 o         1 MOL     -0.693517
    157 H67         4.0110    3.5160   -1.0240 hn        1 MOL      0.357746
    158 H68         2.4030    5.4250   -0.0100 h1        1 MOL      0.174320
    159 H69         1.7860    3.2090   -0.8050 hc        1 MOL      0.127637
    160 H70         0.9890    3.5990    0.8400 hc        1 MOL      0.127637
    161 H71         2.4820    2.0800    1.9770 hc        1 MOL     -0.018067
    162 H72         3.3430    1.9280    0.4890 hc        1 MOL     -0.018067
    163 N14         4.2850    4.6720    2.5550 n         1 MOL     -0.170321
    164 C55         4.6050    4.9590    3.9060 c3        1 MOL     -0.060339
    165 H73         4.9060    4.0410    4.4110 h1        1 MOL      0.051967
    166 H74         5.4250    5.6770    3.9410 h1        1 MOL      0.051967
    167 H75         3.7320    5.3800    4.4050 h1        1 MOL      0.051967
    168 H76         4.9780    4.3990    1.8790 hn        1 MOL      0.197683
    169 Ca1        -0.4040   -1.2010   -0.6660 Ca        1 MOL      1.708339
    170 O24        -2.4160   -1.3270    1.2720 oh        1 MOL     -0.789409
    171 H77        -3.3390   -1.4250    1.0520 ho        1 MOL      0.383685
    172 H78        -2.4100   -0.6850    1.9830 ho        1 MOL      0.383685
    173 O25         0.5460   -0.4320   -3.4240 oh        1 MOL     -0.789409
    174 H79         1.3400   -0.1280   -3.8710 ho        1 MOL      0.383685
    175 H80         0.1750   -1.0980   -4.0060 ho        1 MOL      0.383685
@<TRIPOS>BOND
     1    1    2 1   
     2    1    4 1   
     3    1    5 1   
     4    1    6 1   
     5    2    3 2   
     6    2    7 1   
     7    7    8 1   
     8    7   15 1   
     9    8    9 1   
    10    8   11 1   
    11    8   16 1   
    12    9   10 2   
    13    9   19 1   
    14   11   12 1   
    15   11   17 1   
    16   11   18 1   
    17   12   13 1   
    18   12   14 1   
    19   19   20 1   
    20   19   24 1   
    21   20   21 1   
    22   20   23 1   
    23   20   25 1   
    24   21   22 2   
    25   21   29 1   
    26   23   26 1   
    27   23   27 1   
    28   23   28 1   
    29   29   30 1   
    30   29   37 1   
    31   30   31 1   
    32   30   33 1   
    33   30   38 1   
    34   31   32 2   
    35   31   41 1   
    36   33   34 1   
    37   33   39 1   
    38   33   40 1   
    39   34   35 1   
    40   34   36 1   
    41   41   42 1   
    42   41   45 1   
    43   42   43 1   
    44   42   46 1   
    45   42   47 1   
    46   43   44 2   
    47   43   48 1   
    48   48   49 1   
    49   48   56 1   
    50   49   50 1   
    51   49   52 1   
    52   49   57 1   
    53   50   51 2   
    54   50   62 1   
    55   52   53 1   
    56   52   58 1   
    57   52   59 1   
    58   53   54 1   
    59   53   55 2   
    60   54   60 1   
    61   54   61 1   
    62   62   63 1   
    63   62   66 1   
    64   63   64 1   
    65   63   67 1   
    66   63   68 1   
    67   64   65 2   
    68   64   69 1   
    69   69   70 1   
    70   69   76 1   
    71   70   71 1   
    72   70   73 1   
    73   70   77 1   
    74   71   72 2   
    75   71   83 1   
    76   73   74 1   
    77   73   75 1   
    78   73   78 1   
    79   74   80 1   
    80   74   81 1   
    81   74   82 1   
    82   75   79 1   
    83   83   84 1   
    84   83   91 1   
    85   84   85 1   
    86   84   87 1   
    87   84   92 1   
    88   85   86 2   
    89   85  102 1   
    90   87   88 1   
    91   87   89 1   
    92   87   93 1   
    93   88   90 1   
    94   88   94 1   
    95   88   95 1   
    96   89   96 1   
    97   89   97 1   
    98   89   98 1   
    99   90   99 1   
   100   90  100 1   
   101   90  101 1   
   102  102  103 1   
   103  102  110 1   
   104  103  104 1   
   105  103  106 1   
   106  103  111 1   
   107  104  105 2   
   108  104  114 1   
   109  106  107 1   
   110  106  112 1   
   111  106  113 1   
   112  107  108 1   
   113  107  109 1   
   114  114  115 1   
   115  114  125 1   
   116  115  116 1   
   117  115  118 1   
   118  115  126 1   
   119  116  117 2   
   120  116  134 1   
   121  118  119 1   
   122  118  127 1   
   123  118  128 1   
   124  119  120 ar  
   125  119  121 ar  
   126  120  122 ar  
   127  120  129 1   
   128  121  123 ar  
   129  121  130 1   
   130  122  124 ar  
   131  122  131 1   
   132  123  124 ar  
   133  123  132 1   
   134  124  133 1   
   135  134  135 1   
   136  134  140 1   
   137  135  136 1   
   138  135  138 1   
   139  135  141 1   
   140  136  137 2   
   141  136  148 1   
   142  138  139 1   
   143  138  142 1   
   144  138  143 1   
   145  139  140 1   
   146  139  144 1   
   147  139  145 1   
   148  140  146 1   
   149  140  147 1   
   150  148  149 1   
   151  148  157 1   
   152  149  150 1   
   153  149  152 1   
   154  149  158 1   
   155  150  151 2   
   156  150  163 1   
   157  152  153 1   
   158  152  159 1   
   159  152  160 1   
   160  153  154 1   
   161  153  161 1   
   162  153  162 1   
   163  154  155 1   
   164  154  156 1   
   165  163  164 1   
   166  163  168 1   
   167  164  165 1   
   168  164  166 1   
   169  164  167 1   
   170  170  171 1   
   171  170  172 1   
   172  173  174 1   
   173  173  175 1   
@<TRIPOS>SUBSTRUCTURE
     1 MOL         1 TEMP              0 ****  ****    0 ROOT
