@<TRIPOS>MOLECULE
MOL
  181   177     1     0     0
SMALL
resp


@<TRIPOS>ATOM
      1 C1         -4.5550    8.6090    1.1050 c3        1 MOL     -0.446074
      2 C2         -5.7870    7.9310    0.5030 c         1 MOL      0.690103
      3 O1         -5.9530    7.8440   -0.7010 o         1 MOL     -0.599720
      4 H1         -4.4140    8.2630    2.1290 hc        1 MOL      0.118743
      5 H2         -3.6750    8.3560    0.5130 hc        1 MOL      0.118743
      6 H3         -4.6970    9.6900    1.1030 hc        1 MOL      0.118743
      7 N1         -6.6030    7.0890    1.1520 n         1 MOL     -0.553943
      8 C3         -7.5520    6.1520    0.5650 c3        1 MOL      0.280262
      9 C4         -7.1440    4.8340   -0.0960 c         1 MOL      0.486781
     10 O2         -7.8400    3.8170   -0.0290 o         1 MOL     -0.498920
     11 C5         -8.6660    5.7670    1.5960 c3        1 MOL     -0.343738
     12 C6         -9.9670    5.4020    1.0050 c         1 MOL      0.794548
     13 O3        -10.6990    4.5800    1.6020 o         1 MOL     -0.754544
     14 O4        -10.4110    5.9660   -0.0230 o         1 MOL     -0.754544
     15 H4         -6.5700    7.0980    2.1680 hn        1 MOL      0.263409
     16 H5         -8.0230    6.7720   -0.1940 h1        1 MOL      0.036031
     17 H6         -8.9070    6.6050    2.2410 hc        1 MOL      0.043794
     18 H7         -8.3280    4.9850    2.2770 hc        1 MOL      0.043794
     19 N2         -5.9490    4.8530   -0.7650 n         1 MOL     -0.599709
     20 C7         -5.3400    3.6580   -1.4480 c3        1 MOL      0.319984
     21 C8         -4.3360    2.9620   -0.5200 c         1 MOL      0.496079
     22 O5         -3.4610    3.6510    0.0210 o         1 MOL     -0.556604
     23 C9         -4.7000    4.1580   -2.7630 c3        1 MOL     -0.184249
     24 H8         -5.4320    5.7180   -0.6620 hn        1 MOL      0.319076
     25 H9         -6.1760    3.0060   -1.6650 h1        1 MOL      0.050971
     26 H10        -5.1640    5.0010   -3.2600 hc        1 MOL      0.045744
     27 H11        -3.6670    4.4650   -2.6080 hc        1 MOL      0.045744
     28 H12        -4.7180    3.3660   -3.5280 hc        1 MOL      0.045744
     29 N3         -4.5310    1.6620   -0.2480 n         1 MOL     -0.381243
     30 C10        -5.4950    0.7070   -0.7090 c3        1 MOL      0.006303
     31 C11        -5.7390   -0.4060    0.3220 c         1 MOL      0.260251
     32 O6         -4.8510   -1.1690    0.7370 o         1 MOL     -0.315668
     33 C12        -5.1000    0.1470   -2.0520 c3        1 MOL     -0.239994
     34 C13        -3.6430   -0.1610   -2.3410 c         1 MOL      0.682584
     35 O7         -3.2690   -0.3720   -3.5260 o         1 MOL     -0.676583
     36 O8         -2.7990   -0.2990   -1.4180 o         1 MOL     -0.676583
     37 H13        -3.7130    1.3060    0.2260 hn        1 MOL      0.233346
     38 H14        -6.4270    1.2440   -0.8780 h1        1 MOL      0.065346
     39 H15        -5.3700    0.7620   -2.9070 hc        1 MOL      0.077071
     40 H16        -5.7700   -0.7040   -2.2160 hc        1 MOL      0.077071
     41 N4         -7.0070   -0.5710    0.6740 n         1 MOL     -0.243350
     42 C14        -7.5630   -1.7290    1.3930 c3        1 MOL      0.000028
     43 C15        -8.2100   -2.7460    0.3510 c         1 MOL      0.455440
     44 O9         -9.3110   -2.5320   -0.1130 o         1 MOL     -0.518274
     45 H17        -7.6190    0.1270    0.2820 hn        1 MOL      0.304913
     46 H18        -8.2860   -1.2880    2.0800 h1        1 MOL      0.054083
     47 H19        -6.8050   -2.2630    1.9840 h1        1 MOL      0.054083
     48 N5         -7.5090   -3.7440   -0.1650 n         1 MOL     -0.314182
     49 C16        -6.0660   -3.8590   -0.3100 c3        1 MOL     -0.044867
     50 C17        -5.5120   -4.4160    1.0060 c         1 MOL      0.312134
     51 O10        -5.7330   -5.5500    1.3800 o         1 MOL     -0.530693
     52 C18        -5.8210   -4.7650   -1.5470 c3        1 MOL     -0.162415
     53 C19        -4.3710   -4.8090   -1.8390 c         1 MOL      0.501844
     54 N6         -3.7070   -5.8250   -1.3040 n         1 MOL     -0.630230
     55 O11        -3.8030   -4.0340   -2.5970 o         1 MOL     -0.462486
     56 H20        -8.0550   -4.5260   -0.4930 hn        1 MOL      0.270569
     57 H21        -5.6220   -2.8720   -0.3880 h1        1 MOL      0.153446
     58 H22        -6.3810   -4.3580   -2.3840 hc        1 MOL      0.080193
     59 H23        -6.2240   -5.7560   -1.3600 hc        1 MOL      0.080193
     60 H24        -4.1690   -6.6210   -0.8920 hn        1 MOL      0.326375
     61 H25        -2.7680   -5.9860   -1.6620 hn        1 MOL      0.326375
     62 N7         -4.6330   -3.7210    1.6960 n         1 MOL      0.096899
     63 C20        -3.8750   -4.2010    2.8510 c3        1 MOL     -0.309291
     64 C21        -2.7200   -5.1210    2.5370 c         1 MOL      0.618587
     65 O12        -2.5770   -6.1460    3.1660 o         1 MOL     -0.537247
     66 H26        -4.4580   -2.7740    1.3920 hn        1 MOL      0.000718
     67 H27        -4.5590   -4.8400    3.4000 h1        1 MOL      0.107748
     68 H28        -3.6750   -3.3420    3.4920 h1        1 MOL      0.107748
     69 N8         -1.8400   -4.6410    1.6080 n         1 MOL     -0.307764
     70 C22        -0.4970   -5.2680    1.3790 c3        1 MOL     -0.383977
     71 C23         0.5520   -4.1340    1.1260 c         1 MOL      0.628902
     72 O13         0.2110   -3.1040    0.4990 o         1 MOL     -0.554970
     73 C24        -0.5020   -6.3630    0.2440 c3        1 MOL      0.373887
     74 C25        -1.3660   -7.6120    0.5100 c3        1 MOL     -0.476578
     75 O14        -0.8930   -5.7570   -0.9660 oh        1 MOL     -0.643907
     76 H29        -1.9820   -3.6740    1.3400 hn        1 MOL      0.317371
     77 H30        -0.1590   -5.7160    2.3230 h1        1 MOL      0.151211
     78 H31         0.5100   -6.6780   -0.0130 h1        1 MOL      0.027547
     79 H32        -0.0890   -5.9590   -1.4550 ho        1 MOL      0.436056
     80 H33        -1.3080   -8.3080   -0.3220 hc        1 MOL      0.136106
     81 H34        -0.9290   -8.1080    1.3870 hc        1 MOL      0.136106
     82 H35        -2.4060   -7.3610    0.7370 hc        1 MOL      0.136106
     83 N9          1.8650   -4.3940    1.4640 n         1 MOL     -0.439122
     84 C26         3.0450   -3.4090    1.5420 c3        1 MOL      0.011807
     85 C27         3.9220   -3.5790    0.3270 c         1 MOL      0.368075
     86 O15         4.4650   -4.6620    0.0620 o         1 MOL     -0.537916
     87 C28         3.8000   -3.5990    2.9020 c3        1 MOL      0.106420
     88 C29         4.8380   -2.4360    3.1080 c3        1 MOL     -0.049998
     89 C30         2.8310   -3.5600    4.0780 c3        1 MOL     -0.345438
     90 C31         4.2950   -0.9680    3.0870 c3        1 MOL     -0.224106
     91 H36         2.1030   -5.3050    1.8270 hn        1 MOL      0.279962
     92 H37         2.6110   -2.4080    1.4840 h1        1 MOL      0.167582
     93 H38         4.2340   -4.5970    2.8750 hc        1 MOL      0.016505
     94 H39         5.6690   -2.5910    2.4180 hc        1 MOL      0.017891
     95 H40         5.2590   -2.6310    4.0890 hc        1 MOL      0.017891
     96 H41         2.1330   -4.4000    4.1480 hc        1 MOL      0.092002
     97 H42         3.3580   -3.4540    5.0210 hc        1 MOL      0.092002
     98 H43         2.2450   -2.6510    3.9450 hc        1 MOL      0.092002
     99 H44         3.7940   -0.6780    2.1720 hc        1 MOL      0.051296
    100 H45         3.6050   -0.9050    3.9320 hc        1 MOL      0.051296
    101 H46         5.0900   -0.2290    3.2340 hc        1 MOL      0.051296
    102 N10         4.0460   -2.4690   -0.3910 n         1 MOL     -0.101620
    103 C32         4.8000   -2.4310   -1.6570 c3        1 MOL     -0.032416
    104 C33         6.0970   -1.6120   -1.6310 c         1 MOL      0.511738
    105 O16         7.0180   -1.8550   -2.4590 o         1 MOL     -0.558405
    106 C34         3.9180   -2.0740   -2.8200 c3        1 MOL     -0.164484
    107 C35         2.6260   -2.8960   -2.8650 c         1 MOL      0.772158
    108 O17         2.5780   -3.9900   -3.5040 o         1 MOL     -0.725655
    109 O18         1.5430   -2.3770   -2.4300 o         1 MOL     -0.725655
    110 H47         3.4240   -1.7130   -0.1600 hn        1 MOL      0.105657
    111 H48         5.1860   -3.4180   -1.8820 h1        1 MOL      0.105039
    112 H49         4.3710   -2.1870   -3.8050 hc        1 MOL      0.028175
    113 H50         3.6060   -1.0370   -2.6970 hc        1 MOL      0.028175
    114 N11         6.2600   -0.7650   -0.6180 n         1 MOL     -0.566691
    115 C36         7.4700    0.1300   -0.5370 c3        1 MOL      0.321953
    116 C37         7.0710    1.5350   -0.2480 c         1 MOL      0.348449
    117 O19         6.5980    1.7510    0.8520 o         1 MOL     -0.465615
    118 C38         8.4980   -0.4530    0.4440 c3        1 MOL     -0.261397
    119 C39         9.7700    0.3770    0.6400 ca        1 MOL      0.134896
    120 C40        10.0320    0.8370    1.9400 ca        1 MOL     -0.203869
    121 C41        10.6210    0.7390   -0.4580 ca        1 MOL     -0.203869
    122 C42        11.1130    1.7140    2.1220 ca        1 MOL     -0.075043
    123 C43        11.7570    1.5570   -0.1970 ca        1 MOL     -0.075043
    124 C44        12.0320    1.9720    1.1250 ca        1 MOL     -0.155992
    125 H51         5.4360   -0.5270   -0.0880 hn        1 MOL      0.377474
    126 H52         8.0730    0.0870   -1.4440 h1        1 MOL      0.024383
    127 H53         8.7410   -1.4800    0.1710 hc        1 MOL      0.093660
    128 H54         7.9770   -0.4510    1.3950 hc        1 MOL      0.093660
    129 H55         9.4170    0.7220    2.8170 ha        1 MOL      0.148072
    130 H56        10.4070    0.2740   -1.4030 ha        1 MOL      0.148072
    131 H57        11.2640    2.0990    3.1240 ha        1 MOL      0.096091
    132 H58        12.4660    1.7860   -0.9780 ha        1 MOL      0.096091
    133 H59        12.8900    2.5990    1.3430 ha        1 MOL      0.109271
    134 N12         7.2440    2.5020   -1.1810 n         1 MOL     -0.182880
    135 C45         7.2420    3.9560   -0.9250 c3        1 MOL      0.081129
    136 C46         5.9300    4.5310   -0.3700 c         1 MOL      0.360118
    137 O20         5.8840    5.7060   -0.1020 o         1 MOL     -0.513652
    138 C47         7.5180    4.5980   -2.2070 c3        1 MOL     -0.192338
    139 C48         8.5330    3.6440   -2.8350 c3        1 MOL      0.122006
    140 C49         7.9250    2.3050   -2.5060 c3        1 MOL     -0.220266
    141 H60         8.0250    4.2510   -0.2200 h1        1 MOL      0.085595
    142 H61         6.6760    4.6810   -2.8880 hc        1 MOL      0.085316
    143 H62         8.0190    5.5530   -2.0190 hc        1 MOL      0.085316
    144 H63         8.7720    3.8200   -3.8930 hc        1 MOL      0.005834
    145 H64         9.4830    3.7580   -2.3240 hc        1 MOL      0.005834
    146 H65         7.1300    1.9460   -3.1620 h1        1 MOL      0.106579
    147 H66         8.6970    1.5420   -2.4770 h1        1 MOL      0.106579
    148 N13         4.8340    3.7480   -0.2540 n         1 MOL     -0.218786
    149 C50         3.5550    4.1490    0.3510 c3        1 MOL     -0.164931
    150 C51         3.7160    4.5010    1.8490 c         1 MOL      0.479685
    151 O21         2.8310    5.0450    2.4790 o         1 MOL     -0.512696
    152 C52         2.4180    3.1050    0.2010 c3        1 MOL     -0.024348
    153 C53         2.6040    1.8370    0.9890 c3        1 MOL     -0.271145
    154 C54         1.8070    0.6630    0.4580 c         1 MOL      0.844384
    155 O22         0.6790    0.4440    0.9050 o         1 MOL     -0.781885
    156 O23         2.2590   -0.1480   -0.3490 o         1 MOL     -0.781885
    157 H67         5.0040    2.8170   -0.5980 hn        1 MOL      0.202044
    158 H68         3.1660    5.0280   -0.1500 h1        1 MOL      0.131113
    159 H69         2.3290    2.8950   -0.8640 hc        1 MOL      0.057614
    160 H70         1.4840    3.6060    0.4620 hc        1 MOL      0.057614
    161 H71         2.3060    2.0630    2.0150 hc        1 MOL      0.079261
    162 H72         3.6380    1.5030    0.9220 hc        1 MOL      0.079261
    163 N14         4.8820    4.1370    2.4440 n         1 MOL     -0.162255
    164 C55         5.1710    4.6130    3.8240 c3        1 MOL     -0.247314
    165 H73         4.6260    4.0010    4.5410 h1        1 MOL      0.105057
    166 H74         6.2410    4.5350    4.0190 h1        1 MOL      0.105057
    167 H75         4.8580    5.6530    3.9240 h1        1 MOL      0.105057
    168 H76         5.4670    3.5670    1.8620 hn        1 MOL      0.165372
    169 Ca1        -0.3350   -1.0400   -0.9870 Ca        1 MOL      1.724325
    170 O24        -1.6310   -3.1150   -1.5670 oh        1 MOL     -0.851285
    171 H77        -2.4430   -3.3640   -2.0130 ho        1 MOL      0.405010
    172 H78        -1.1090   -3.9220   -1.5460 ho        1 MOL      0.405010
    173 O25        -1.9750   -1.2610    1.2210 oh        1 MOL     -0.851285
    174 H79        -1.7970   -0.6740    1.9540 ho        1 MOL      0.405010
    175 H80        -2.8430   -0.9960    0.9060 ho        1 MOL      0.405010
    176 O26         0.1390    1.2800   -2.2740 oh        1 MOL     -0.851285
    177 H81         0.9560    1.4460   -2.7460 ho        1 MOL      0.405010
    178 H82        -0.1050    2.1280   -1.9070 ho        1 MOL      0.405010
    179 O27        -0.7960   -1.0030   -3.8530 oh        1 MOL     -0.851285
    180 H83        -0.5430   -0.5950   -4.6790 ho        1 MOL      0.405010
    181 H84        -1.6240   -0.5900   -3.6180 ho        1 MOL      0.405010
@<TRIPOS>BOND
     1    1    2 1   
     2    1    4 1   
     3    1    5 1   
     4    1    6 1   
     5    2    3 2   
     6    2    7 1   
     7    7    8 1   
     8    7   15 1   
     9    8    9 1   
    10    8   11 1   
    11    8   16 1   
    12    9   10 2   
    13    9   19 1   
    14   11   12 1   
    15   11   17 1   
    16   11   18 1   
    17   12   13 1   
    18   12   14 1   
    19   19   20 1   
    20   19   24 1   
    21   20   21 1   
    22   20   23 1   
    23   20   25 1   
    24   21   22 2   
    25   21   29 1   
    26   23   26 1   
    27   23   27 1   
    28   23   28 1   
    29   29   30 1   
    30   29   37 1   
    31   30   31 1   
    32   30   33 1   
    33   30   38 1   
    34   31   32 2   
    35   31   41 1   
    36   33   34 1   
    37   33   39 1   
    38   33   40 1   
    39   34   35 1   
    40   34   36 1   
    41   41   42 1   
    42   41   45 1   
    43   42   43 1   
    44   42   46 1   
    45   42   47 1   
    46   43   44 2   
    47   43   48 1   
    48   48   49 1   
    49   48   56 1   
    50   49   50 1   
    51   49   52 1   
    52   49   57 1   
    53   50   51 2   
    54   50   62 1   
    55   52   53 1   
    56   52   58 1   
    57   52   59 1   
    58   53   54 1   
    59   53   55 2   
    60   54   60 1   
    61   54   61 1   
    62   62   63 1   
    63   62   66 1   
    64   63   64 1   
    65   63   67 1   
    66   63   68 1   
    67   64   65 2   
    68   64   69 1   
    69   69   70 1   
    70   69   76 1   
    71   70   71 1   
    72   70   73 1   
    73   70   77 1   
    74   71   72 2   
    75   71   83 1   
    76   73   74 1   
    77   73   75 1   
    78   73   78 1   
    79   74   80 1   
    80   74   81 1   
    81   74   82 1   
    82   75   79 1   
    83   83   84 1   
    84   83   91 1   
    85   84   85 1   
    86   84   87 1   
    87   84   92 1   
    88   85   86 2   
    89   85  102 1   
    90   87   88 1   
    91   87   89 1   
    92   87   93 1   
    93   88   90 1   
    94   88   94 1   
    95   88   95 1   
    96   89   96 1   
    97   89   97 1   
    98   89   98 1   
    99   90   99 1   
   100   90  100 1   
   101   90  101 1   
   102  102  103 1   
   103  102  110 1   
   104  103  104 1   
   105  103  106 1   
   106  103  111 1   
   107  104  105 2   
   108  104  114 1   
   109  106  107 1   
   110  106  112 1   
   111  106  113 1   
   112  107  108 1   
   113  107  109 1   
   114  114  115 1   
   115  114  125 1   
   116  115  116 1   
   117  115  118 1   
   118  115  126 1   
   119  116  117 2   
   120  116  134 1   
   121  118  119 1   
   122  118  127 1   
   123  118  128 1   
   124  119  120 ar  
   125  119  121 ar  
   126  120  122 ar  
   127  120  129 1   
   128  121  123 ar  
   129  121  130 1   
   130  122  124 ar  
   131  122  131 1   
   132  123  124 ar  
   133  123  132 1   
   134  124  133 1   
   135  134  135 1   
   136  134  140 1   
   137  135  136 1   
   138  135  138 1   
   139  135  141 1   
   140  136  137 2   
   141  136  148 1   
   142  138  139 1   
   143  138  142 1   
   144  138  143 1   
   145  139  140 1   
   146  139  144 1   
   147  139  145 1   
   148  140  146 1   
   149  140  147 1   
   150  148  149 1   
   151  148  157 1   
   152  149  150 1   
   153  149  152 1   
   154  149  158 1   
   155  150  151 2   
   156  150  163 1   
   157  152  153 1   
   158  152  159 1   
   159  152  160 1   
   160  153  154 1   
   161  153  161 1   
   162  153  162 1   
   163  154  155 1   
   164  154  156 1   
   165  163  164 1   
   166  163  168 1   
   167  164  165 1   
   168  164  166 1   
   169  164  167 1   
   170  170  171 1   
   171  170  172 1   
   172  173  174 1   
   173  173  175 1   
   174  176  177 1   
   175  176  178 1   
   176  179  180 1   
   177  179  181 1   
@<TRIPOS>SUBSTRUCTURE
     1 MOL         1 TEMP              0 ****  ****    0 ROOT
