@<TRIPOS>MOLECULE
MOL
  198   191     1     0     0
SMALL
resp


@<TRIPOS>ATOM
      1 C1          4.8930   -3.0610   -2.0250 c3        1 MOL     -0.311253
      2 C2          4.0340   -3.7980   -0.8740 c         1 MOL      0.704588
      3 O1          3.2540   -3.1260   -0.2000 o         1 MOL     -0.527709
      4 H1          4.4720   -3.3020   -3.0020 hc        1 MOL      0.036355
      5 H2          4.8570   -1.9820   -1.8710 hc        1 MOL      0.036355
      6 H3          5.9280   -3.4010   -1.9820 hc        1 MOL      0.036355
      7 N1          4.1860   -5.0960   -0.5530 n         1 MOL     -0.371086
      8 C3          3.4210   -5.8650    0.5250 c3        1 MOL      0.073942
      9 C4          1.9320   -6.0710    0.3430 c         1 MOL      0.710889
     10 O2          1.2220   -6.1900    1.3690 o         1 MOL     -0.522280
     11 C5          3.7860   -5.5190    1.9690 c3        1 MOL     -0.940949
     12 C6          5.2400   -5.0640    2.2290 c         1 MOL      0.812439
     13 O3          5.6030   -3.8510    2.3500 o         1 MOL     -0.638630
     14 O4          6.1620   -5.9170    2.3200 o         1 MOL     -0.638630
     15 H4          4.8350   -5.6630   -1.0660 hn        1 MOL      0.252790
     16 H5          3.8840   -6.8490    0.4410 h1        1 MOL      0.065444
     17 H6          3.5130   -6.3860    2.5700 hc        1 MOL      0.270577
     18 H7          3.1820   -4.7130    2.3900 hc        1 MOL      0.270577
     19 N2          1.3830   -5.9030   -0.9210 n         1 MOL     -0.580224
     20 C7         -0.1530   -5.7660   -1.0560 c3        1 MOL      0.099331
     21 C8         -0.8480   -7.1770   -0.9850 c         1 MOL      0.415961
     22 O5         -0.1050   -8.1980   -1.1280 o         1 MOL     -0.586945
     23 C9         -0.4030   -5.1210   -2.4680 c3        1 MOL      0.140431
     24 C10         0.3080   -5.9490   -3.6200 c3        1 MOL      0.117150
     25 C11         0.2060   -3.6480   -2.4250 c3        1 MOL     -0.348810
     26 C12        -0.2640   -5.7150   -4.9990 c3        1 MOL     -0.195700
     27 H8          2.0020   -5.7950   -1.7140 hn        1 MOL      0.164435
     28 H9         -0.5610   -5.2370   -0.1980 h1        1 MOL      0.132170
     29 H10        -1.4840   -5.0600   -2.6220 hc        1 MOL      0.034929
     30 H11         0.2490   -7.0170   -3.4210 hc        1 MOL      0.008783
     31 H12         1.3650   -5.6820   -3.6740 hc        1 MOL      0.008783
     32 H13         0.0110   -3.1280   -3.3580 hc        1 MOL      0.091819
     33 H14        -0.1090   -3.0250   -1.5840 hc        1 MOL      0.091819
     34 H15         1.2970   -3.7000   -2.3840 hc        1 MOL      0.091819
     35 H16         0.4100   -6.2280   -5.6880 hc        1 MOL      0.028369
     36 H17        -1.2880   -6.0870   -5.0530 hc        1 MOL      0.028369
     37 H18        -0.2700   -4.6640   -5.2780 hc        1 MOL      0.028369
     38 N3         -2.1280   -7.3020   -0.7870 n         1 MOL     -0.355505
     39 C13        -3.1860   -6.3520   -0.5510 c3        1 MOL     -0.136651
     40 C14        -4.1730   -6.7420    0.5470 c         1 MOL      0.457102
     41 O6         -4.8630   -7.8020    0.4450 o         1 MOL     -0.539152
     42 C15        -4.0100   -6.1660   -1.7480 c3        1 MOL     -0.053292
     43 C16        -5.0270   -5.0140   -1.7400 c         1 MOL      0.723348
     44 O7         -5.8440   -4.9630   -2.6820 o         1 MOL     -0.717920
     45 O8         -5.0540   -4.1670   -0.7990 o         1 MOL     -0.717920
     46 H19        -2.5030   -8.2380   -0.8540 hn        1 MOL      0.293631
     47 H20        -2.7030   -5.4130   -0.2780 h1        1 MOL      0.061181
     48 H21        -4.5270   -7.1090   -1.9320 hc        1 MOL      0.019616
     49 H22        -3.4430   -6.0600   -2.6720 hc        1 MOL      0.019616
     50 N4         -4.3330   -5.8660    1.5510 n         1 MOL     -0.172550
     51 C17        -5.3900   -5.9830    2.5970 c3        1 MOL     -0.256662
     52 C18        -5.7510   -4.6540    3.0560 c         1 MOL      0.651217
     53 O9         -5.9080   -4.4530    4.2530 o         1 MOL     -0.600558
     54 H23        -3.7220   -5.0860    1.7200 hn        1 MOL      0.244028
     55 H24        -4.9890   -6.6160    3.3840 h1        1 MOL      0.104508
     56 H25        -6.2780   -6.4290    2.1410 h1        1 MOL      0.104508
     57 N5         -5.9010   -3.6940    2.1610 n         1 MOL     -0.352463
     58 C19        -6.2930   -2.3470    2.6550 c3        1 MOL     -0.131731
     59 C20        -7.3330   -1.6860    1.6450 c         1 MOL      0.508033
     60 O10        -8.3400   -1.0820    2.0080 o         1 MOL     -0.562096
     61 C21        -5.0660   -1.4660    2.9700 c3        1 MOL     -0.136658
     62 C22        -4.1490   -1.1880    1.7560 c         1 MOL      0.644207
     63 O11        -3.0820   -1.8790    1.6480 o         1 MOL     -0.659461
     64 O12        -4.5330   -0.3640    0.9080 o         1 MOL     -0.659461
     65 H26        -5.8100   -3.9270    1.1840 hn        1 MOL      0.229258
     66 H27        -6.7560   -2.3900    3.6400 h1        1 MOL      0.104016
     67 H28        -4.5370   -2.0350    3.7310 hc        1 MOL      0.053534
     68 H29        -5.2260   -0.5010    3.4560 hc        1 MOL      0.053534
     69 N6         -7.0730   -1.7440    0.3100 n         1 MOL     -0.302348
     70 C23        -7.9170   -1.0820   -0.6790 c3        1 MOL     -0.189659
     71 C24        -8.1220    0.4270   -0.6120 c         1 MOL      0.565773
     72 O13        -9.0610    0.9040   -1.2270 o         1 MOL     -0.589972
     73 H30        -6.1520   -2.0170   -0.0130 hn        1 MOL      0.331189
     74 H31        -8.9090   -1.5380   -0.6850 h1        1 MOL      0.103610
     75 H32        -7.4630   -1.3300   -1.6360 h1        1 MOL      0.103610
     76 N7         -7.2750    1.1310    0.1240 n         1 MOL     -0.138504
     77 C25        -7.3180    2.5510    0.4370 c3        1 MOL     -0.105383
     78 C26        -7.1820    3.5550   -0.7250 c         1 MOL      0.517114
     79 O14        -7.5210    4.7560   -0.7010 o         1 MOL     -0.507695
     80 C27        -8.5140    2.8310    1.4190 c3        1 MOL      0.186659
     81 C28        -8.3970    2.3600    2.8970 c3        1 MOL     -0.150471
     82 C29        -8.4490    3.4370    3.9680 c         1 MOL      0.547945
     83 N8         -8.6510    2.8910    5.1170 n         1 MOL     -0.681940
     84 O15        -8.1100    4.6110    3.8340 o         1 MOL     -0.524473
     85 H33        -6.4430    0.6640    0.4620 hn        1 MOL      0.129295
     86 H34        -6.4500    2.8400    1.0040 h1        1 MOL      0.130864
     87 H35        -9.4770    2.5970    0.9580 hc        1 MOL     -0.040355
     88 H36        -8.5260    3.9080    1.6190 hc        1 MOL     -0.040355
     89 H37        -7.4920    1.7810    3.0880 hc        1 MOL      0.050588
     90 H38        -9.2640    1.7170    3.0600 hc        1 MOL      0.050588
     91 H39        -8.8930    1.9140    5.1880 hn        1 MOL      0.315481
     92 H40        -8.7640    3.4680    5.9450 hn        1 MOL      0.315481
     93 N9         -6.6000    3.0300   -1.8230 n         1 MOL     -0.446161
     94 C30        -6.2080    3.8470   -2.9680 c3        1 MOL     -0.104138
     95 C31        -4.7410    4.0950   -3.0650 c         1 MOL      0.575786
     96 O16        -4.3400    5.1190   -3.5810 o         1 MOL     -0.558881
     97 C32        -6.8450    3.2900   -4.2570 c3        1 MOL      0.321199
     98 C33        -6.5320    1.9090   -4.6830 c3        1 MOL     -0.375793
     99 C34        -8.4120    3.3740   -4.1620 c3        1 MOL     -0.375793
    100 H41        -6.3040    2.0740   -1.8770 hn        1 MOL      0.257385
    101 H42        -6.7400    4.7490   -2.6750 h1        1 MOL      0.109188
    102 H43        -6.6180    4.0820   -4.9780 hc        1 MOL     -0.037872
    103 H44        -6.9900    1.1660   -4.0270 hc        1 MOL      0.089036
    104 H45        -6.9630    1.9090   -5.6770 hc        1 MOL      0.089036
    105 H46        -5.4500    1.7760   -4.6940 hc        1 MOL      0.089036
    106 H47        -8.8370    2.7830   -3.3550 hc        1 MOL      0.089036
    107 H48        -8.6210    4.4490   -4.1160 hc        1 MOL      0.089036
    108 H49        -8.8780    3.1140   -5.1200 hc        1 MOL      0.089036
    109 N10        -3.9160    3.1670   -2.4740 n         1 MOL     -0.367181
    110 C35        -2.4640    3.0610   -2.5280 c3        1 MOL      0.164076
    111 C36        -1.7590    3.3700   -1.1530 c         1 MOL      0.554276
    112 O17        -2.5230    3.3020   -0.1600 o         1 MOL     -0.537973
    113 C37        -2.1280    1.6240   -2.9400 c3        1 MOL     -0.402464
    114 C38        -0.6820    1.4650   -3.4500 c         1 MOL      0.679878
    115 N11         0.1450    0.6330   -2.8450 n         1 MOL     -0.700199
    116 O18        -0.2450    2.0290   -4.4300 o         1 MOL     -0.568507
    117 H50        -4.4090    2.4280   -1.9950 hn        1 MOL      0.251447
    118 H51        -2.0330    3.7620   -3.2410 h1        1 MOL      0.020471
    119 H52        -2.8790    1.3430   -3.6840 hc        1 MOL      0.120825
    120 H53        -2.2820    0.9790   -2.0750 hc        1 MOL      0.120825
    121 H54        -0.1370    0.2170   -1.9710 hn        1 MOL      0.334407
    122 H55         1.1500    0.5910   -2.9400 hn        1 MOL      0.334407
    123 N12        -0.4620    3.6260   -1.1890 n         1 MOL     -0.456595
    124 C39         0.3400    3.8810   -0.0190 c3        1 MOL      0.012756
    125 C40         1.6250    4.6190   -0.3510 c         1 MOL      0.612501
    126 O19         2.2300    4.2060   -1.2580 o         1 MOL     -0.554496
    127 C41         0.7170    2.6220    0.7550 c3        1 MOL     -0.389562
    128 C42         1.0220    2.7790    2.2360 ca        1 MOL      0.371634
    129 C43         2.3540    2.8240    2.7260 ca        1 MOL     -0.391028
    130 C44        -0.0260    2.8820    3.0880 ca        1 MOL     -0.391028
    131 C45         2.5490    2.9830    4.1190 ca        1 MOL     -0.078331
    132 C46         0.1210    2.9350    4.4930 ca        1 MOL     -0.078331
    133 C47         1.4940    3.0640    4.9480 ca        1 MOL      0.187573
    134 O20         1.7530    3.1770    6.2510 oh        1 MOL     -0.478014
    135 H56        -0.0040    3.6260   -2.0900 hn        1 MOL      0.299231
    136 H57        -0.2250    4.4350    0.7280 h1        1 MOL      0.075013
    137 H58         1.5290    2.1060    0.2430 hc        1 MOL      0.130800
    138 H59        -0.1720    2.0080    0.6110 hc        1 MOL      0.130800
    139 H60         3.1880    2.8730    2.0360 ha        1 MOL      0.212511
    140 H61        -1.0240    2.8400    2.6750 ha        1 MOL      0.212511
    141 H62         3.5390    2.9690    4.5340 ha        1 MOL      0.120103
    142 H63        -0.7140    2.9820    5.1750 ha        1 MOL      0.120103
    143 H64         2.6940    3.3700    6.3490 ho        1 MOL      0.348761
    144 N13         2.0340    5.5400    0.4630 n         1 MOL     -0.595572
    145 C48         3.4500    6.1300    0.3600 c3        1 MOL      0.289031
    146 C49         4.3770    5.3700    1.3580 c         1 MOL      0.331100
    147 O21         4.3750    5.6880    2.5060 o         1 MOL     -0.523360
    148 C50         3.4570    7.5940    0.6430 c3        1 MOL      0.072806
    149 C51         2.6670    8.3830   -0.3670 c3        1 MOL     -0.166207
    150 C52         2.8810    9.8600   -0.1430 c         1 MOL      0.673776
    151 O22         2.6410   10.3830    0.9920 o         1 MOL     -0.672184
    152 O23         3.3500   10.5790   -1.0920 o         1 MOL     -0.672184
    153 H65         1.5200    5.7340    1.3020 hn        1 MOL      0.353541
    154 H66         3.8090    5.9250   -0.6490 h1        1 MOL      0.043362
    155 H67         4.4580    7.9990    0.7580 hc        1 MOL      0.010945
    156 H68         2.9390    7.6600    1.6020 hc        1 MOL      0.010945
    157 H69         1.5940    8.1890   -0.4430 hc        1 MOL      0.014347
    158 H70         3.1380    8.2440   -1.3390 hc        1 MOL      0.014347
    159 N14         5.3440    4.4760    1.0210 n         1 MOL     -0.403696
    160 C53         5.4030    3.6190   -0.1660 c3        1 MOL     -0.059868
    161 C54         5.8330    4.1880   -1.4650 c         1 MOL      0.809605
    162 O24         6.3810    5.2690   -1.5470 o         1 MOL     -0.587870
    163 C55         6.1660    2.2820    0.1330 c3        1 MOL     -0.299295
    164 C56         7.6120    2.4920    0.5530 c3        1 MOL     -0.879244
    165 C57         8.2950    1.1180    0.5300 c         1 MOL      0.982571
    166 O25         8.2950    0.4460   -0.5310 o         1 MOL     -0.717143
    167 O26         8.9100    0.6120    1.4920 o         1 MOL     -0.717143
    168 H71         5.9280    4.2460    1.8100 hn        1 MOL      0.316708
    169 H72         4.3720    3.2960   -0.3060 h1        1 MOL      0.062995
    170 H73         5.9720    1.6400   -0.7240 hc        1 MOL      0.134864
    171 H74         5.7390    1.7690    0.9940 hc        1 MOL      0.134864
    172 H75         7.6760    2.8400    1.5790 hc        1 MOL      0.263993
    173 H76         8.0410    3.2050   -0.1550 hc        1 MOL      0.263993
    174 N15         5.4340    3.4750   -2.5000 n         1 MOL     -0.528008
    175 C58         5.4880    4.0970   -3.8790 c3        1 MOL     -0.366959
    176 H77         5.0560    3.4090   -4.6040 h1        1 MOL      0.152277
    177 H78         4.9220    5.0290   -3.8810 h1        1 MOL      0.152277
    178 H79         6.5260    4.3010   -4.1460 h1        1 MOL      0.152277
    179 H80         4.8190    2.6770   -2.4000 hn        1 MOL      0.370840
    180 Ca1         9.2160   -1.9440   -0.1470 Ca        1 MOL      1.721858
    181 O27        10.8440   -3.9400   -0.9520 oh        1 MOL     -0.844392
    182 H81        11.1000   -4.8160   -0.6700 ho        1 MOL      0.384541
    183 H82        11.6080   -3.6210   -1.4440 ho        1 MOL      0.384541
    184 O28        10.7950   -1.3760   -2.4290 oh        1 MOL     -0.844392
    185 H83        10.8030   -0.9090   -3.2620 ho        1 MOL      0.384541
    186 H84        11.5670   -1.9530   -2.4690 ho        1 MOL      0.384541
    187 O29        11.4980   -0.6560    0.5650 oh        1 MOL     -0.844392
    188 H85        11.8510   -1.3440    1.1260 ho        1 MOL      0.384541
    189 H86        11.8120    0.1590    0.9560 ho        1 MOL      0.384541
    190 O30         9.6580   -2.4220    2.3930 oh        1 MOL     -0.844392
    191 H87         8.9920   -2.7160    3.0160 ho        1 MOL      0.384541
    192 H88        10.3050   -1.9650    2.9300 ho        1 MOL      0.384541
    193 O31         8.1940   -4.4540    0.4060 oh        1 MOL     -0.844392
    194 H89         8.4800   -5.2640   -0.0270 ho        1 MOL      0.384541
    195 H90         7.5260   -4.7350    1.0350 ho        1 MOL      0.384541
    196 O32         6.7530   -2.0220    0.8500 oh        1 MOL     -0.844392
    197 H91         6.3180   -2.6750    1.3900 ho        1 MOL      0.384541
    198 H92         6.0370   -1.5570    0.4160 ho        1 MOL      0.384541
@<TRIPOS>BOND
     1    1    2 1   
     2    1    4 1   
     3    1    5 1   
     4    1    6 1   
     5    2    3 2   
     6    2    7 1   
     7    7    8 1   
     8    7   15 1   
     9    8    9 1   
    10    8   11 1   
    11    8   16 1   
    12    9   10 2   
    13    9   19 1   
    14   11   12 1   
    15   11   17 1   
    16   11   18 1   
    17   12   13 1   
    18   12   14 1   
    19   19   20 1   
    20   19   27 1   
    21   20   21 1   
    22   20   23 1   
    23   20   28 1   
    24   21   22 2   
    25   21   38 1   
    26   23   24 1   
    27   23   25 1   
    28   23   29 1   
    29   24   26 1   
    30   24   30 1   
    31   24   31 1   
    32   25   32 1   
    33   25   33 1   
    34   25   34 1   
    35   26   35 1   
    36   26   36 1   
    37   26   37 1   
    38   38   39 1   
    39   38   46 1   
    40   39   40 1   
    41   39   42 1   
    42   39   47 1   
    43   40   41 2   
    44   40   50 1   
    45   42   43 1   
    46   42   48 1   
    47   42   49 1   
    48   43   44 1   
    49   43   45 1   
    50   50   51 1   
    51   50   54 1   
    52   51   52 1   
    53   51   55 1   
    54   51   56 1   
    55   52   53 2   
    56   52   57 1   
    57   57   58 1   
    58   57   65 1   
    59   58   59 1   
    60   58   61 1   
    61   58   66 1   
    62   59   60 2   
    63   59   69 1   
    64   61   62 1   
    65   61   67 1   
    66   61   68 1   
    67   62   63 1   
    68   62   64 1   
    69   69   70 1   
    70   69   73 1   
    71   70   71 1   
    72   70   74 1   
    73   70   75 1   
    74   71   72 2   
    75   71   76 1   
    76   76   77 1   
    77   76   85 1   
    78   77   78 1   
    79   77   80 1   
    80   77   86 1   
    81   78   79 2   
    82   78   93 1   
    83   80   81 1   
    84   80   87 1   
    85   80   88 1   
    86   81   82 1   
    87   81   89 1   
    88   81   90 1   
    89   82   83 1   
    90   82   84 2   
    91   83   91 1   
    92   83   92 1   
    93   93   94 1   
    94   93  100 1   
    95   94   95 1   
    96   94   97 1   
    97   94  101 1   
    98   95   96 2   
    99   95  109 1   
   100   97   98 1   
   101   97   99 1   
   102   97  102 1   
   103   98  103 1   
   104   98  104 1   
   105   98  105 1   
   106   99  106 1   
   107   99  107 1   
   108   99  108 1   
   109  109  110 1   
   110  109  117 1   
   111  110  111 1   
   112  110  113 1   
   113  110  118 1   
   114  111  112 2   
   115  111  123 1   
   116  113  114 1   
   117  113  119 1   
   118  113  120 1   
   119  114  115 1   
   120  114  116 2   
   121  115  121 1   
   122  115  122 1   
   123  123  124 1   
   124  123  135 1   
   125  124  125 1   
   126  124  127 1   
   127  124  136 1   
   128  125  126 2   
   129  125  144 1   
   130  127  128 1   
   131  127  137 1   
   132  127  138 1   
   133  128  129 ar  
   134  128  130 ar  
   135  129  131 ar  
   136  129  139 1   
   137  130  132 ar  
   138  130  140 1   
   139  131  133 ar  
   140  131  141 1   
   141  132  133 ar  
   142  132  142 1   
   143  133  134 1   
   144  134  143 1   
   145  144  145 1   
   146  144  153 1   
   147  145  146 1   
   148  145  148 1   
   149  145  154 1   
   150  146  147 2   
   151  146  159 1   
   152  148  149 1   
   153  148  155 1   
   154  148  156 1   
   155  149  150 1   
   156  149  157 1   
   157  149  158 1   
   158  150  151 1   
   159  150  152 1   
   160  159  160 1   
   161  159  168 1   
   162  160  161 1   
   163  160  163 1   
   164  160  169 1   
   165  161  162 2   
   166  161  174 1   
   167  163  164 1   
   168  163  170 1   
   169  163  171 1   
   170  164  165 1   
   171  164  172 1   
   172  164  173 1   
   173  165  166 1   
   174  165  167 1   
   175  174  175 1   
   176  174  179 1   
   177  175  176 1   
   178  175  177 1   
   179  175  178 1   
   180  181  182 1   
   181  181  183 1   
   182  184  185 1   
   183  184  186 1   
   184  187  188 1   
   185  187  189 1   
   186  190  191 1   
   187  190  192 1   
   188  193  194 1   
   189  193  195 1   
   190  196  197 1   
   191  196  198 1   
@<TRIPOS>SUBSTRUCTURE
     1 MOL         1 TEMP              0 ****  ****    0 ROOT
