@<TRIPOS>MOLECULE
MOL
  182   178     1     0     0
SMALL
resp


@<TRIPOS>ATOM
      1 C1          0.7570   -5.2170    5.5280 c3        1 MOL     -0.463038
      2 C2          0.8060   -4.8280    4.0330 c         1 MOL      0.778987
      3 O1         -0.1470   -5.0860    3.2810 o         1 MOL     -0.630978
      4 H1          1.7730   -5.2760    5.9210 hc        1 MOL      0.127046
      5 H2          0.1970   -4.4630    6.0810 hc        1 MOL      0.127046
      6 H3          0.2700   -6.1850    5.6360 hc        1 MOL      0.127046
      7 N1          1.9330   -4.1890    3.6330 n         1 MOL     -0.550930
      8 C3          2.2610   -3.6220    2.2650 c3        1 MOL     -0.103792
      9 C4          2.7440   -4.6780    1.2910 c         1 MOL      0.568902
     10 O2          3.6100   -5.5330    1.6210 o         1 MOL     -0.527535
     11 C5          3.3920   -2.5290    2.4390 c3        1 MOL     -0.053778
     12 C6          3.6150   -1.5720    1.2580 c         1 MOL      0.491953
     13 O3          3.8830   -0.3980    1.6060 o         1 MOL     -0.681718
     14 O4          3.4490   -1.8700    0.0890 o         1 MOL     -0.681718
     15 H4          2.6880   -4.0350    4.2950 hn        1 MOL      0.315424
     16 H5          1.3610   -3.1720    1.8460 h1        1 MOL      0.094505
     17 H6          4.3070   -3.0410    2.7430 hc        1 MOL      0.075400
     18 H7          3.1860   -1.9850    3.3600 hc        1 MOL      0.075400
     19 N2          2.2830   -4.6150    0.0060 n         1 MOL     -0.526435
     20 C7          2.6850   -5.6380   -1.0380 c3        1 MOL      0.068047
     21 C8          3.8430   -5.2000   -1.8540 c         1 MOL      0.513490
     22 O5          4.2740   -5.9580   -2.7000 o         1 MOL     -0.563905
     23 C9          1.4620   -6.0880   -1.8660 c3        1 MOL     -0.016610
     24 C10         0.3210   -6.7420   -1.0960 c3        1 MOL     -0.062789
     25 C11        -0.6020   -7.4510   -2.0670 c3        1 MOL      0.023366
     26 C12        -1.6070   -8.3850   -1.3710 c3        1 MOL      0.073497
     27 N3         -2.7500   -8.6770   -2.2400 n4        1 MOL     -0.267165
     28 H8          1.5680   -3.9990   -0.3230 hn        1 MOL      0.348912
     29 H9          3.0770   -6.5250   -0.5530 h1        1 MOL      0.110407
     30 H10         1.8240   -6.8720   -2.5260 hc        1 MOL      0.028473
     31 H11         1.0240   -5.2630   -2.4410 hc        1 MOL      0.028473
     32 H12        -0.2910   -6.0110   -0.5640 hc        1 MOL      0.033934
     33 H13         0.6020   -7.5180   -0.3990 hc        1 MOL      0.033934
     34 H14        -0.1270   -8.0160   -2.8750 hc        1 MOL      0.017437
     35 H15        -1.0970   -6.6500   -2.6240 hc        1 MOL      0.017437
     36 H16        -1.9890   -7.9150   -0.4680 hx        1 MOL      0.062957
     37 H17        -1.1820   -9.3100   -1.0030 hx        1 MOL      0.062957
     38 H18        -3.0160   -7.7880   -2.6480 hn        1 MOL      0.235043
     39 H19        -2.5300   -9.3960   -2.9180 hn        1 MOL      0.235043
     40 H20        -3.5470   -8.9910   -1.6890 hn        1 MOL      0.235043
     41 N4          4.4640   -4.0520   -1.5500 n         1 MOL     -0.253099
     42 C13         5.6740   -3.6410   -2.2300 c3        1 MOL      0.044825
     43 C14         6.7350   -3.1280   -1.2040 c         1 MOL      0.487901
     44 O6          7.7780   -3.7130   -1.1760 o         1 MOL     -0.529388
     45 C15         5.4670   -2.5500   -3.2610 c3        1 MOL     -0.222413
     46 C16         4.4110   -1.5100   -2.7460 c         1 MOL      0.316562
     47 O7          4.8950   -0.4840   -2.0800 o         1 MOL     -0.532630
     48 O8          3.1700   -1.6670   -2.8270 o         1 MOL     -0.532630
     49 H21         3.9960   -3.4220   -0.9210 hn        1 MOL      0.152891
     50 H22         6.1630   -4.3740   -2.8640 h1        1 MOL      0.089888
     51 H23         5.0300   -3.0470   -4.1270 hc        1 MOL      0.096868
     52 H24         6.3540   -2.0100   -3.5970 hc        1 MOL      0.096868
     53 N5          6.3610   -2.2520   -0.2320 n         1 MOL     -0.176084
     54 C17         7.2630   -1.6860    0.8090 c3        1 MOL     -0.014167
     55 C18         7.6970   -0.2160    0.6250 c         1 MOL      0.495245
     56 O9          8.6690    0.2180    1.2820 o         1 MOL     -0.565955
     57 H25         5.5460   -1.6510   -0.3260 hn        1 MOL      0.124125
     58 H26         8.1930   -2.2470    0.8580 h1        1 MOL      0.066442
     59 H27         6.7710   -1.7370    1.7750 h1        1 MOL      0.066442
     60 N6          6.9670    0.6190   -0.0980 n         1 MOL     -0.022699
     61 C19         7.2170    2.0530   -0.3330 c3        1 MOL     -0.106345
     62 C20         5.9000    2.9600   -0.1950 c         1 MOL      0.547654
     63 O10         4.7650    2.4760   -0.2930 o         1 MOL     -0.573557
     64 C21         8.0090    2.2300   -1.7060 c3        1 MOL      0.060869
     65 C22         8.7250    3.5980   -1.8130 c         1 MOL      0.545166
     66 N7          9.3620    3.8480   -2.9290 n         1 MOL     -0.706497
     67 O11         8.8640    4.3550   -0.8810 o         1 MOL     -0.517252
     68 H28         6.2530    0.2570   -0.7170 hn        1 MOL     -0.048710
     69 H29         7.8250    2.4220    0.4900 h1        1 MOL      0.091296
     70 H30         7.3110    2.2010   -2.5440 hc        1 MOL     -0.022350
     71 H31         8.7850    1.4750   -1.7960 hc        1 MOL     -0.022350
     72 H32         9.4180    3.2250   -3.7180 hn        1 MOL      0.345511
     73 H33         9.7240    4.7920   -3.0120 hn        1 MOL      0.345511
     74 N8          5.9920    4.2530   -0.0560 n         1 MOL     -0.315349
     75 C23         4.8820    5.1940    0.0610 c3        1 MOL     -0.114340
     76 C24         3.7990    4.9080    1.0440 c         1 MOL      0.586340
     77 O12         4.1190    4.7000    2.2190 o         1 MOL     -0.516852
     78 H34         6.9390    4.6290    0.0480 hn        1 MOL      0.264787
     79 H35         4.5020    5.2710   -0.9590 h1        1 MOL      0.064944
     80 H36         5.3300    6.1560    0.3180 h1        1 MOL      0.064944
     81 N9          2.5680    4.9170    0.6030 n         1 MOL     -0.500276
     82 C25         1.3330    4.5250    1.3530 c3        1 MOL      0.129116
     83 C26         1.3470    3.0000    1.6250 c         1 MOL      0.541221
     84 O13         2.1930    2.3070    1.0760 o         1 MOL     -0.393630
     85 C27         0.0970    5.1290    0.6500 c3        1 MOL     -0.085095
     86 C28         0.1800    6.5610    0.2000 ca        1 MOL      0.079564
     87 C29         0.3150    7.6030    1.1270 ca        1 MOL     -0.149047
     88 C30        -0.0240    6.8500   -1.1160 ca        1 MOL     -0.149047
     89 C31         0.3030    8.9240    0.7440 ca        1 MOL     -0.273567
     90 C32        -0.0440    8.1770   -1.5570 ca        1 MOL     -0.273567
     91 C33         0.0360    9.2490   -0.6270 ca        1 MOL      0.351905
     92 O14         0.0630   10.4920   -1.0170 oh        1 MOL     -0.469284
     93 H37         2.4230    5.0400   -0.3890 hn        1 MOL      0.240337
     94 H38         1.4290    5.0180    2.3150 h1        1 MOL      0.059275
     95 H39        -0.7410    4.9530    1.3420 hc        1 MOL      0.024238
     96 H40        -0.0650    4.5060   -0.2250 hc        1 MOL      0.024238
     97 H41         0.4920    7.3470    2.1660 ha        1 MOL      0.123365
     98 H42        -0.0900    5.9990   -1.7900 ha        1 MOL      0.123365
     99 H43         0.3610    9.6690    1.5260 ha        1 MOL      0.154350
    100 H44        -0.2030    8.5000   -2.5800 ha        1 MOL      0.154350
    101 H45         0.0430   11.0760   -0.2550 ho        1 MOL      0.386194
    102 N10         0.4050    2.5720    2.4800 n         1 MOL     -0.711345
    103 C34         0.0470    1.1730    2.7400 c3        1 MOL     -0.024017
    104 C35        -0.1920    0.2820    1.5180 c         1 MOL      0.777991
    105 O15         0.7570   -0.0310    0.8090 o         1 MOL     -0.591845
    106 C36         0.9270    0.4850    3.7940 c3        1 MOL      0.383778
    107 C37         0.3870   -0.9230    4.1390 c3        1 MOL     -0.117704
    108 C38         1.0750    1.3300    5.0970 c3        1 MOL     -0.477828
    109 C39        -0.8540   -0.9130    5.0100 c3        1 MOL     -0.411002
    110 H46        -0.0260    3.2410    3.1120 hn        1 MOL      0.380239
    111 H47        -0.9560    1.2010    3.1720 h1        1 MOL      0.041579
    112 H48         1.9490    0.4110    3.4290 hc        1 MOL      0.007794
    113 H49         1.2060   -1.4410    4.6450 hc        1 MOL      0.056372
    114 H50         0.0880   -1.4810    3.2600 hc        1 MOL      0.056372
    115 H51         0.1140    1.6790    5.4530 hc        1 MOL      0.123943
    116 H52         1.5760    0.6420    5.7850 hc        1 MOL      0.123943
    117 H53         1.8590    2.0760    4.9900 hc        1 MOL      0.123943
    118 H54        -1.2140   -1.9270    5.1990 hc        1 MOL      0.106498
    119 H55        -0.6250   -0.5430    6.0070 hc        1 MOL      0.106498
    120 H56        -1.6210   -0.3940    4.4360 hc        1 MOL      0.106498
    121 N11        -1.4590   -0.1520    1.3390 n         1 MOL     -0.731779
    122 C40        -1.7660   -1.2270    0.3890 c3        1 MOL      0.165136
    123 C41        -3.2330   -1.2830   -0.1170 c         1 MOL      0.418031
    124 O16        -3.6410   -2.1100   -1.0130 o         1 MOL     -0.542102
    125 C42        -1.3990   -2.6320    0.8240 c3        1 MOL      0.171297
    126 O17        -2.0370   -2.9060    2.0360 oh        1 MOL     -0.599888
    127 H57        -2.1350    0.0070    2.0740 hn        1 MOL      0.416981
    128 H58        -1.0670   -1.1330   -0.4370 h1        1 MOL      0.043016
    129 H59        -0.3090   -2.6020    0.9200 h1        1 MOL      0.008517
    130 H60        -1.6110   -3.4260    0.1120 h1        1 MOL      0.008517
    131 H61        -1.8950   -3.8400    2.2070 ho        1 MOL      0.429345
    132 N12        -4.1270   -0.4710    0.4700 n         1 MOL     -0.302040
    133 C43        -5.5210   -0.2340    0.0720 c3        1 MOL     -0.048326
    134 C44        -5.5590    0.4460   -1.3470 c         1 MOL      0.675974
    135 O18        -4.6700    1.2590   -1.6130 o         1 MOL     -0.575069
    136 C45        -6.0200    0.5550    1.2670 c3        1 MOL     -0.233001
    137 H62        -3.8240    0.0930    1.2540 hn        1 MOL      0.208256
    138 H63        -6.0620   -1.1860    0.1610 h1        1 MOL      0.128849
    139 H64        -5.4300    1.4440    1.4950 hc        1 MOL      0.080023
    140 H65        -7.0290    0.9070    1.0810 hc        1 MOL      0.080023
    141 H66        -5.8800    0.0390    2.2180 hc        1 MOL      0.080023
    142 N13        -6.6460    0.3480   -2.0990 n         1 MOL     -0.549877
    143 C46        -7.8520   -0.4010   -1.8240 c3        1 MOL      0.260462
    144 C47        -9.1080    0.2980   -2.5670 c         1 MOL      0.492949
    145 O19        -9.0220    0.8760   -3.6740 o         1 MOL     -0.533860
    146 C48        -7.5630   -1.8250   -2.2540 c3        1 MOL     -0.313951
    147 H67        -6.8070    0.9100   -2.9240 hn        1 MOL      0.304344
    148 H68        -8.0640   -0.4430   -0.7530 h1        1 MOL     -0.012475
    149 H69        -7.2650   -1.8770   -3.2980 hc        1 MOL      0.089684
    150 H70        -6.6900   -2.0630   -1.6470 hc        1 MOL      0.089684
    151 H71        -8.3680   -2.5260   -2.0210 hc        1 MOL      0.089684
    152 N14       -10.2310    0.3980   -1.8700 n         1 MOL     -0.528738
    153 C49       -10.6200   -0.0670   -0.5190 c3        1 MOL     -0.066904
    154 C50       -10.1600    0.8450    0.6320 c         1 MOL      0.555871
    155 O20       -10.0400    0.5260    1.7860 o         1 MOL     -0.518477
    156 C51       -12.1820   -0.3720   -0.5270 c3        1 MOL      0.035341
    157 C52       -13.1170    0.8480   -0.2430 c3        1 MOL     -0.192848
    158 C53       -14.5630    0.4890   -0.2090 c         1 MOL      0.743484
    159 O21       -15.3400    1.2690   -0.7840 o         1 MOL     -0.648217
    160 O22       -15.0990   -0.5280    0.2540 o         1 MOL     -0.648217
    161 H72       -11.0750    0.7480   -2.3020 hn        1 MOL      0.368277
    162 H73       -10.1390   -1.0400   -0.3850 h1        1 MOL      0.093440
    163 H74       -12.3230   -1.1830    0.1960 hc        1 MOL      0.019300
    164 H75       -12.4890   -0.6870   -1.5200 hc        1 MOL      0.019300
    165 H76       -12.8840    1.5970   -1.0130 hc        1 MOL      0.031066
    166 H77       -12.9660    1.2900    0.7320 hc        1 MOL      0.031066
    167 N15        -9.7550    2.0970    0.2520 n         1 MOL     -0.331149
    168 C54        -9.1720    3.1110    1.1170 c3        1 MOL     -0.235429
    169 H78        -8.1030    2.9250    1.2250 h1        1 MOL      0.111438
    170 H79        -9.3260    4.0960    0.6790 h1        1 MOL      0.111438
    171 H80        -9.6480    3.0710    2.0970 h1        1 MOL      0.111438
    172 H81        -9.8390    2.3910   -0.7070 hn        1 MOL      0.267865
    173 Ca1         2.8690    0.5890   -0.9750 Ca        1 MOL      1.775322
    174 O23         4.0260    1.6640   -3.4140 oh        1 MOL     -0.859014
    175 H82         4.5770    0.8830   -3.5070 ho        1 MOL      0.428677
    176 H83         4.6330    2.3960   -3.5220 ho        1 MOL      0.428677
    177 O24         1.7470    2.9960   -2.2190 oh        1 MOL     -0.859014
    178 H84         0.9620    3.1900   -2.7360 ho        1 MOL      0.428677
    179 H85         2.3580    3.6920   -2.4400 ho        1 MOL      0.428677
    180 O25         0.7070    0.2640   -2.5170 oh        1 MOL     -0.859014
    181 H86         0.5150   -0.3470   -3.2270 ho        1 MOL      0.428677
    182 H87        -0.0910    0.7900   -2.4320 ho        1 MOL      0.428677
@<TRIPOS>BOND
     1    1    2 1   
     2    1    4 1   
     3    1    5 1   
     4    1    6 1   
     5    2    3 2   
     6    2    7 1   
     7    7    8 1   
     8    7   15 1   
     9    8    9 1   
    10    8   11 1   
    11    8   16 1   
    12    9   10 2   
    13    9   19 1   
    14   11   12 1   
    15   11   17 1   
    16   11   18 1   
    17   12   13 1   
    18   12   14 1   
    19   19   20 1   
    20   19   28 1   
    21   20   21 1   
    22   20   23 1   
    23   20   29 1   
    24   21   22 2   
    25   21   41 1   
    26   23   24 1   
    27   23   30 1   
    28   23   31 1   
    29   24   25 1   
    30   24   32 1   
    31   24   33 1   
    32   25   26 1   
    33   25   34 1   
    34   25   35 1   
    35   26   27 1   
    36   26   36 1   
    37   26   37 1   
    38   27   38 1   
    39   27   39 1   
    40   27   40 1   
    41   41   42 1   
    42   41   49 1   
    43   42   43 1   
    44   42   45 1   
    45   42   50 1   
    46   43   44 2   
    47   43   53 1   
    48   45   46 1   
    49   45   51 1   
    50   45   52 1   
    51   46   47 1   
    52   46   48 1   
    53   53   54 1   
    54   53   57 1   
    55   54   55 1   
    56   54   58 1   
    57   54   59 1   
    58   55   56 2   
    59   55   60 1   
    60   60   61 1   
    61   60   68 1   
    62   61   62 1   
    63   61   64 1   
    64   61   69 1   
    65   62   63 2   
    66   62   74 1   
    67   64   65 1   
    68   64   70 1   
    69   64   71 1   
    70   65   66 1   
    71   65   67 2   
    72   66   72 1   
    73   66   73 1   
    74   74   75 1   
    75   74   78 1   
    76   75   76 1   
    77   75   79 1   
    78   75   80 1   
    79   76   77 2   
    80   76   81 1   
    81   81   82 1   
    82   81   93 1   
    83   82   83 1   
    84   82   85 1   
    85   82   94 1   
    86   83   84 2   
    87   83  102 1   
    88   85   86 1   
    89   85   95 1   
    90   85   96 1   
    91   86   87 ar  
    92   86   88 ar  
    93   87   89 ar  
    94   87   97 1   
    95   88   90 ar  
    96   88   98 1   
    97   89   91 ar  
    98   89   99 1   
    99   90   91 ar  
   100   90  100 1   
   101   91   92 1   
   102   92  101 1   
   103  102  103 1   
   104  102  110 1   
   105  103  104 1   
   106  103  106 1   
   107  103  111 1   
   108  104  105 2   
   109  104  121 1   
   110  106  107 1   
   111  106  108 1   
   112  106  112 1   
   113  107  109 1   
   114  107  113 1   
   115  107  114 1   
   116  108  115 1   
   117  108  116 1   
   118  108  117 1   
   119  109  118 1   
   120  109  119 1   
   121  109  120 1   
   122  121  122 1   
   123  121  127 1   
   124  122  123 1   
   125  122  125 1   
   126  122  128 1   
   127  123  124 2   
   128  123  132 1   
   129  125  126 1   
   130  125  129 1   
   131  125  130 1   
   132  126  131 1   
   133  132  133 1   
   134  132  137 1   
   135  133  134 1   
   136  133  136 1   
   137  133  138 1   
   138  134  135 2   
   139  134  142 1   
   140  136  139 1   
   141  136  140 1   
   142  136  141 1   
   143  142  143 1   
   144  142  147 1   
   145  143  144 1   
   146  143  146 1   
   147  143  148 1   
   148  144  145 2   
   149  144  152 1   
   150  146  149 1   
   151  146  150 1   
   152  146  151 1   
   153  152  153 1   
   154  152  161 1   
   155  153  154 1   
   156  153  156 1   
   157  153  162 1   
   158  154  155 2   
   159  154  167 1   
   160  156  157 1   
   161  156  163 1   
   162  156  164 1   
   163  157  158 1   
   164  157  165 1   
   165  157  166 1   
   166  158  159 1   
   167  158  160 1   
   168  167  168 1   
   169  167  172 1   
   170  168  169 1   
   171  168  170 1   
   172  168  171 1   
   173  174  175 1   
   174  174  176 1   
   175  177  178 1   
   176  177  179 1   
   177  180  181 1   
   178  180  182 1   
@<TRIPOS>SUBSTRUCTURE
     1 MOL         1 TEMP              0 ****  ****    0 ROOT
