@<TRIPOS>MOLECULE
MOL
  185   180     1     0     0
SMALL
resp


@<TRIPOS>ATOM
      1 C1         -6.8290   -0.7140   -4.5640 c3        1 MOL     -0.333890
      2 C2         -6.8010   -0.0010   -3.1380 c         1 MOL      0.713096
      3 O1         -5.8570   -0.2510   -2.4110 o         1 MOL     -0.567665
      4 H1         -5.9940   -1.4120   -4.6380 hc        1 MOL      0.082228
      5 H2         -7.7680   -1.2570   -4.6810 hc        1 MOL      0.082228
      6 H3         -6.7440    0.0370   -5.3490 hc        1 MOL      0.082228
      7 N1         -7.7830    0.8140   -2.7730 n         1 MOL     -0.568102
      8 C3         -7.7910    1.5770   -1.5170 c3        1 MOL     -0.181034
      9 C4         -7.6810    0.6980   -0.2280 c         1 MOL      0.427877
     10 O2         -7.1820    1.1670    0.7730 o         1 MOL     -0.480578
     11 C5         -6.7560    2.7210   -1.6480 c3        1 MOL     -0.107417
     12 C6         -7.0270    3.6860   -2.7780 c         1 MOL      0.675446
     13 O3         -6.7120    3.2630   -3.9600 o         1 MOL     -0.664255
     14 O4         -7.3160    4.8350   -2.4390 o         1 MOL     -0.664255
     15 H4         -8.4530    1.0570   -3.4950 hn        1 MOL      0.326284
     16 H5         -8.7580    2.0540   -1.3780 h1        1 MOL      0.140082
     17 H6         -5.7020    2.4500   -1.7270 hc        1 MOL      0.116048
     18 H7         -6.8390    3.2940   -0.7270 hc        1 MOL      0.116048
     19 N2         -8.1200   -0.5750   -0.3510 n         1 MOL     -0.247075
     20 C7         -8.0670   -1.6140    0.6840 c3        1 MOL      0.023917
     21 C8         -6.6720   -2.2140    0.5820 c         1 MOL      0.668490
     22 O5         -6.4260   -3.3610    0.1910 o         1 MOL     -0.601527
     23 C9         -9.2180   -2.6390    0.4400 c3        1 MOL     -0.225714
     24 C10       -10.5310   -2.1440    1.0440 c3        1 MOL     -0.007140
     25 C11       -11.5870   -3.2610    1.0810 c3        1 MOL     -0.002768
     26 C12       -12.2000   -3.1890   -0.3680 c3        1 MOL      0.088392
     27 N3        -13.3750   -4.1300   -0.5770 n4        1 MOL     -0.246031
     28 H8         -8.4960   -0.9060   -1.2270 hn        1 MOL      0.197361
     29 H9         -8.1500   -1.2690    1.7190 h1        1 MOL      0.074659
     30 H10        -8.9350   -3.6090    0.8680 hc        1 MOL      0.079111
     31 H11        -9.3640   -2.8370   -0.6130 hc        1 MOL      0.079111
     32 H12       -10.9160   -1.2060    0.6510 hc        1 MOL      0.040806
     33 H13       -10.2560   -1.7770    2.0320 hc        1 MOL      0.040806
     34 H14       -12.3400   -2.9710    1.8150 hc        1 MOL      0.034513
     35 H15       -11.2540   -4.2800    1.3320 hc        1 MOL      0.034513
     36 H16       -11.4140   -3.5100   -1.0580 hx        1 MOL      0.049092
     37 H17       -12.5510   -2.2020   -0.6460 hx        1 MOL      0.049092
     38 H18       -13.0060   -5.0710   -0.5770 hn        1 MOL      0.249849
     39 H19       -14.1210   -4.0990    0.1150 hn        1 MOL      0.249849
     40 H20       -13.7030   -3.9790   -1.5220 hn        1 MOL      0.249849
     41 N4         -5.6530   -1.4720    1.0210 n         1 MOL     -0.555401
     42 C13        -4.2270   -1.7920    0.9110 c3        1 MOL      0.047360
     43 C14        -3.5340   -2.1980    2.1800 c         1 MOL      0.465226
     44 O6         -3.5500   -1.4320    3.1970 o         1 MOL     -0.490023
     45 C15        -3.4630   -0.5920    0.4590 c3        1 MOL      0.041707
     46 C16        -1.9900   -0.8860   -0.0120 c         1 MOL      0.457680
     47 O7         -1.7130   -1.1150   -1.1960 o         1 MOL     -0.675650
     48 O8         -1.1260   -0.7580    0.8430 o         1 MOL     -0.675650
     49 H21        -5.8610   -0.5060    1.2180 hn        1 MOL      0.267784
     50 H22        -4.2590   -2.5970    0.1740 h1        1 MOL      0.093266
     51 H23        -3.4380    0.1220    1.2790 hc        1 MOL      0.092894
     52 H24        -3.9200   -0.0560   -0.3720 hc        1 MOL      0.092894
     53 N5         -2.7780   -3.3030    2.2170 n         1 MOL     -0.269298
     54 C17        -2.1710   -3.8760    3.4380 c3        1 MOL     -0.152154
     55 C18        -0.9730   -3.2390    4.1580 c         1 MOL      0.462326
     56 O9         -0.6400   -3.5960    5.2990 o         1 MOL     -0.553251
     57 H25        -2.7260   -3.8520    1.3690 hn        1 MOL      0.215148
     58 H26        -1.7970   -4.8320    3.0780 h1        1 MOL      0.106888
     59 H27        -2.9400   -4.2210    4.1260 h1        1 MOL      0.106888
     60 N6         -0.4350   -2.1480    3.6360 n         1 MOL     -0.127434
     61 C19         0.4540   -1.2490    4.3030 c3        1 MOL      0.001130
     62 C20         0.0150    0.2460    4.0660 c         1 MOL      0.378945
     63 O10         0.6790    1.1400    4.5300 o         1 MOL     -0.507182
     64 C21         1.9450   -1.4440    3.9360 c3        1 MOL     -0.444519
     65 C22         2.4100   -0.9960    2.5780 c         1 MOL      0.763948
     66 N7          3.4650   -0.2770    2.6000 n         1 MOL     -0.649634
     67 O11         1.9060   -1.3390    1.4980 o         1 MOL     -0.721915
     68 H28        -0.7770   -1.8460    2.7460 hn        1 MOL      0.211153
     69 H29         0.3430   -1.4250    5.3660 h1        1 MOL      0.137344
     70 H30         2.1240   -2.5190    4.0220 hc        1 MOL      0.146454
     71 H31         2.6080   -0.9720    4.6610 hc        1 MOL      0.146454
     72 H32         3.9860   -0.1770    3.4620 hn        1 MOL      0.295139
     73 H33         3.8980    0.1210    1.7880 hn        1 MOL      0.295139
     74 N8         -1.1700    0.5460    3.4800 n         1 MOL     -0.021322
     75 C23        -1.7810    1.8940    3.4080 c3        1 MOL     -0.201939
     76 C24        -1.2160    2.8200    2.3040 c         1 MOL      0.575195
     77 O12        -1.2280    4.0490    2.4980 o         1 MOL     -0.552633
     78 H34        -1.7310   -0.1730    3.0490 hn        1 MOL     -0.039448
     79 H35        -1.7420    2.5220    4.3060 h1        1 MOL      0.109153
     80 H36        -2.8130    1.7270    3.0830 h1        1 MOL      0.109153
     81 N9         -0.7660    2.2020    1.2000 n         1 MOL     -0.226476
     82 C25         0.0570    2.8490    0.1940 c3        1 MOL      0.229741
     83 C26         1.2210    2.0360   -0.3190 c         1 MOL      0.104503
     84 O13         1.3050    0.7900   -0.2450 o         1 MOL     -0.191101
     85 C27        -0.8530    3.2690   -0.9960 c3        1 MOL     -0.323683
     86 C28        -1.9650    4.3050   -0.7370 ca        1 MOL      0.008248
     87 C29        -3.2520    3.9740   -0.3340 ca        1 MOL     -0.082566
     88 C30        -1.7210    5.6930   -0.7760 ca        1 MOL     -0.082566
     89 C31        -4.3310    4.9330   -0.1990 ca        1 MOL     -0.287375
     90 C32        -2.7280    6.6690   -0.7150 ca        1 MOL     -0.287375
     91 C33        -4.0280    6.3060   -0.4390 ca        1 MOL      0.442226
     92 O14        -4.9480    7.3070   -0.3670 oh        1 MOL     -0.491524
     93 H37        -0.6730    1.1990    1.1730 hn        1 MOL      0.143958
     94 H38         0.5630    3.6900    0.6730 h1        1 MOL     -0.001888
     95 H39        -1.3190    2.3530   -1.3370 hc        1 MOL      0.131830
     96 H40        -0.1960    3.6380   -1.7830 hc        1 MOL      0.131830
     97 H41        -3.4360    2.9150   -0.1750 ha        1 MOL      0.066125
     98 H42        -0.7560    5.9770   -1.1640 ha        1 MOL      0.066125
     99 H43        -5.3180    4.6690    0.1250 ha        1 MOL      0.124945
    100 H44        -2.5260    7.7260   -0.7480 ha        1 MOL      0.124945
    101 H45        -4.6480    8.1960   -0.5870 ho        1 MOL      0.360231
    102 N10         2.2780    2.7780   -0.8200 n         1 MOL     -0.175666
    103 C34         3.4840    2.2210   -1.3860 c3        1 MOL     -0.007582
    104 C35         4.3080    1.9670   -0.1120 c         1 MOL      0.275146
    105 O15         4.8670    0.8710    0.1380 o         1 MOL     -0.341172
    106 C36         4.1010    3.1370   -2.4660 c3        1 MOL      0.278497
    107 C37         3.1780    3.5590   -3.5530 c3        1 MOL      0.004683
    108 C38         5.3660    2.5100   -2.9860 c3        1 MOL     -0.458854
    109 C39         2.4470    2.4610   -4.3490 c3        1 MOL     -0.420138
    110 H46         2.2140    3.7830   -0.7480 hn        1 MOL      0.220241
    111 H47         3.1890    1.2400   -1.7610 h1        1 MOL      0.014672
    112 H48         4.4230    4.0860   -2.0340 hc        1 MOL     -0.073601
    113 H49         3.7530    4.1670   -4.2550 hc        1 MOL      0.012325
    114 H50         2.4020    4.1920   -3.1290 hc        1 MOL      0.012325
    115 H51         6.0770    2.4750   -2.1550 hc        1 MOL      0.130140
    116 H52         5.2330    1.5520   -3.4860 hc        1 MOL      0.130140
    117 H53         5.8290    3.2200   -3.6630 hc        1 MOL      0.130140
    118 H54         1.8860    1.7940   -3.6920 hc        1 MOL      0.127596
    119 H55         1.7900    3.0160   -5.0070 hc        1 MOL      0.127596
    120 H56         3.2150    1.9210   -4.8940 hc        1 MOL      0.127596
    121 N11         4.5370    2.9330    0.7880 n         1 MOL     -0.283727
    122 C40         5.1640    2.7430    2.0830 c3        1 MOL     -0.073378
    123 C41         6.6800    2.5850    1.8960 c         1 MOL      0.313579
    124 O16         7.3330    2.2280    2.9070 o         1 MOL     -0.463695
    125 C42         4.8840    3.9120    3.0330 c3        1 MOL      0.169740
    126 O17         3.5150    3.9460    3.2950 oh        1 MOL     -0.581965
    127 H57         4.2030    3.8690    0.5760 hn        1 MOL      0.252499
    128 H58         4.6730    1.9310    2.6360 h1        1 MOL      0.197983
    129 H59         5.1720    4.8450    2.5440 h1        1 MOL      0.034439
    130 H60         5.4940    3.7150    3.9120 h1        1 MOL      0.034439
    131 H61         3.3030    4.8350    3.6010 ho        1 MOL      0.413807
    132 N12         7.2620    2.7780    0.7130 n         1 MOL     -0.278441
    133 C43         8.6250    2.2880    0.4480 c3        1 MOL      0.116907
    134 C44         8.8700    0.7320    0.6420 c         1 MOL      0.512226
    135 O18         9.9880    0.3730    1.0100 o         1 MOL     -0.514505
    136 C45         9.6450    3.1290    1.2500 c3        1 MOL     -0.242272
    137 H62         6.7620    3.2540   -0.0340 hn        1 MOL      0.235335
    138 H63         8.9000    2.5460   -0.5770 h1        1 MOL      0.046542
    139 H64         9.7150    2.9200    2.3180 hc        1 MOL      0.076601
    140 H65        10.6330    2.9090    0.8460 hc        1 MOL      0.076601
    141 H66         9.5210    4.2050    1.1350 hc        1 MOL      0.076601
    142 N13         7.8220   -0.0670    0.3490 n         1 MOL     -0.517925
    143 C46         7.7760   -1.5170    0.5000 c3        1 MOL      0.570421
    144 C47         7.1570   -2.0730   -0.8090 c         1 MOL      0.386853
    145 O19         6.4300   -1.3840   -1.5430 o         1 MOL     -0.519561
    146 C48         7.0230   -1.9090    1.7970 c3        1 MOL     -0.282499
    147 H67         6.9610    0.3680    0.0630 hn        1 MOL      0.126701
    148 H68         8.7730   -1.9450    0.5770 h1        1 MOL     -0.069542
    149 H69         6.0450   -1.4280    1.7420 hc        1 MOL      0.074801
    150 H70         6.8920   -2.9860    1.8220 hc        1 MOL      0.074801
    151 H71         7.5950   -1.5700    2.6640 hc        1 MOL      0.074801
    152 N14         7.1970   -3.4280   -0.9540 n         1 MOL     -0.546267
    153 C49         6.6750   -4.2260   -2.1200 c3        1 MOL     -0.104350
    154 C50         7.2090   -3.7770   -3.5240 c         1 MOL      0.411353
    155 O20         6.7590   -4.2710   -4.5270 o         1 MOL     -0.497779
    156 C51         5.1430   -4.2610   -2.1460 c3        1 MOL      0.115941
    157 C52         4.5620   -4.5380   -0.7810 c3        1 MOL     -0.007629
    158 C53         3.0720   -4.8570   -0.9680 c         1 MOL      0.551967
    159 O21         2.2030   -3.9570   -0.8020 o         1 MOL     -0.667166
    160 O22         2.8020   -5.9690   -1.4050 o         1 MOL     -0.667166
    161 H72         7.6740   -3.9200   -0.2040 hn        1 MOL      0.321126
    162 H73         7.0420   -5.2520   -2.0260 h1        1 MOL      0.130417
    163 H74         4.8540   -5.0520   -2.8470 hc        1 MOL      0.025944
    164 H75         4.7170   -3.3570   -2.5690 hc        1 MOL      0.025944
    165 H76         4.6400   -3.5940   -0.2460 hc        1 MOL     -0.017826
    166 H77         5.0250   -5.3710   -0.2470 hc        1 MOL     -0.017826
    167 N15         8.1960   -2.8730   -3.5730 n         1 MOL     -0.119749
    168 C54         8.8930   -2.2250   -4.7010 c3        1 MOL     -0.264467
    169 H78         9.6030   -2.9250   -5.1390 h1        1 MOL      0.113812
    170 H79         8.1650   -1.9260   -5.4550 h1        1 MOL      0.113812
    171 H80         9.4260   -1.3450   -4.3430 h1        1 MOL      0.113812
    172 H81         8.5850   -2.7140   -2.6590 hn        1 MOL      0.168018
    173 Ca1         0.8530   -1.8460   -0.8300 Ca        1 MOL      1.697041
    174 O23         0.2730   -3.6310   -2.6510 oh        1 MOL     -0.841455
    175 H82         0.5580   -4.3470   -2.0750 ho        1 MOL      0.414890
    176 H83         0.0710   -4.0550   -3.4830 ho        1 MOL      0.414890
    177 O24         0.8580   -0.6790   -3.2570 oh        1 MOL     -0.841455
    178 H84         0.5110    0.0750   -3.7340 ho        1 MOL      0.414890
    179 H85         0.9250   -1.3720   -3.9130 ho        1 MOL      0.414890
    180 O25        -0.4990   -3.8210    0.3190 oh        1 MOL     -0.841455
    181 H86        -0.2330   -4.5330    0.9030 ho        1 MOL      0.414890
    182 H87        -1.1100   -4.2180   -0.2890 ho        1 MOL      0.414890
    183 O26         3.4530   -1.1340   -0.9440 oh        1 MOL     -0.841455
    184 H88         3.6820   -0.4610   -0.3050 ho        1 MOL      0.414890
    185 H89         4.2870   -1.3200   -1.3960 ho        1 MOL      0.414890
@<TRIPOS>BOND
     1    1    2 1   
     2    1    4 1   
     3    1    5 1   
     4    1    6 1   
     5    2    3 2   
     6    2    7 1   
     7    7    8 1   
     8    7   15 1   
     9    8    9 1   
    10    8   11 1   
    11    8   16 1   
    12    9   10 2   
    13    9   19 1   
    14   11   12 1   
    15   11   17 1   
    16   11   18 1   
    17   12   13 1   
    18   12   14 1   
    19   19   20 1   
    20   19   28 1   
    21   20   21 1   
    22   20   23 1   
    23   20   29 1   
    24   21   22 2   
    25   21   41 1   
    26   23   24 1   
    27   23   30 1   
    28   23   31 1   
    29   24   25 1   
    30   24   32 1   
    31   24   33 1   
    32   25   26 1   
    33   25   34 1   
    34   25   35 1   
    35   26   27 1   
    36   26   36 1   
    37   26   37 1   
    38   27   38 1   
    39   27   39 1   
    40   27   40 1   
    41   41   42 1   
    42   41   49 1   
    43   42   43 1   
    44   42   45 1   
    45   42   50 1   
    46   43   44 2   
    47   43   53 1   
    48   45   46 1   
    49   45   51 1   
    50   45   52 1   
    51   46   47 1   
    52   46   48 1   
    53   53   54 1   
    54   53   57 1   
    55   54   55 1   
    56   54   58 1   
    57   54   59 1   
    58   55   56 2   
    59   55   60 1   
    60   60   61 1   
    61   60   68 1   
    62   61   62 1   
    63   61   64 1   
    64   61   69 1   
    65   62   63 2   
    66   62   74 1   
    67   64   65 1   
    68   64   70 1   
    69   64   71 1   
    70   65   66 1   
    71   65   67 2   
    72   66   72 1   
    73   66   73 1   
    74   74   75 1   
    75   74   78 1   
    76   75   76 1   
    77   75   79 1   
    78   75   80 1   
    79   76   77 2   
    80   76   81 1   
    81   81   82 1   
    82   81   93 1   
    83   82   83 1   
    84   82   85 1   
    85   82   94 1   
    86   83   84 2   
    87   83  102 1   
    88   85   86 1   
    89   85   95 1   
    90   85   96 1   
    91   86   87 ar  
    92   86   88 ar  
    93   87   89 ar  
    94   87   97 1   
    95   88   90 ar  
    96   88   98 1   
    97   89   91 ar  
    98   89   99 1   
    99   90   91 ar  
   100   90  100 1   
   101   91   92 1   
   102   92  101 1   
   103  102  103 1   
   104  102  110 1   
   105  103  104 1   
   106  103  106 1   
   107  103  111 1   
   108  104  105 2   
   109  104  121 1   
   110  106  107 1   
   111  106  108 1   
   112  106  112 1   
   113  107  109 1   
   114  107  113 1   
   115  107  114 1   
   116  108  115 1   
   117  108  116 1   
   118  108  117 1   
   119  109  118 1   
   120  109  119 1   
   121  109  120 1   
   122  121  122 1   
   123  121  127 1   
   124  122  123 1   
   125  122  125 1   
   126  122  128 1   
   127  123  124 2   
   128  123  132 1   
   129  125  126 1   
   130  125  129 1   
   131  125  130 1   
   132  126  131 1   
   133  132  133 1   
   134  132  137 1   
   135  133  134 1   
   136  133  136 1   
   137  133  138 1   
   138  134  135 2   
   139  134  142 1   
   140  136  139 1   
   141  136  140 1   
   142  136  141 1   
   143  142  143 1   
   144  142  147 1   
   145  143  144 1   
   146  143  146 1   
   147  143  148 1   
   148  144  145 2   
   149  144  152 1   
   150  146  149 1   
   151  146  150 1   
   152  146  151 1   
   153  152  153 1   
   154  152  161 1   
   155  153  154 1   
   156  153  156 1   
   157  153  162 1   
   158  154  155 2   
   159  154  167 1   
   160  156  157 1   
   161  156  163 1   
   162  156  164 1   
   163  157  158 1   
   164  157  165 1   
   165  157  166 1   
   166  158  159 1   
   167  158  160 1   
   168  167  168 1   
   169  167  172 1   
   170  168  169 1   
   171  168  170 1   
   172  168  171 1   
   173  174  175 1   
   174  174  176 1   
   175  177  178 1   
   176  177  179 1   
   177  180  181 1   
   178  180  182 1   
   179  183  184 1   
   180  183  185 1   
@<TRIPOS>SUBSTRUCTURE
     1 MOL         1 TEMP              0 ****  ****    0 ROOT
