@<TRIPOS>MOLECULE
MOL
  181   177     1     0     0
SMALL
resp


@<TRIPOS>ATOM
      1 C1          1.2620    6.0970   -1.0440 c3        1 MOL     -0.274984
      2 C2          2.7380    6.0490   -0.5810 c         1 MOL      0.627202
      3 O1          3.0050    6.4080    0.5980 o         1 MOL     -0.612596
      4 H1          0.8120    7.0380   -0.7260 hc        1 MOL      0.065790
      5 H2          1.2180    6.0230   -2.1300 hc        1 MOL      0.065790
      6 H3          0.7150    5.2650   -0.6000 hc        1 MOL      0.065790
      7 N1          3.7040    5.5860   -1.3450 n         1 MOL     -0.570857
      8 C3          5.1320    5.6480   -1.0580 c3        1 MOL      0.379337
      9 C4          5.5330    4.3990   -0.1970 c         1 MOL      0.511118
     10 O2          5.9000    3.3220   -0.7420 o         1 MOL     -0.520143
     11 C5          5.9440    5.7270   -2.3420 c3        1 MOL     -0.463081
     12 C6          7.4510    5.9410   -2.0510 c         1 MOL      0.852853
     13 O3          8.1890    6.3260   -2.9820 o         1 MOL     -0.751952
     14 O4          7.9260    5.9070   -0.9130 o         1 MOL     -0.751952
     15 H4          3.4790    5.3560   -2.3040 hn        1 MOL      0.303015
     16 H5          5.3360    6.6020   -0.5590 h1        1 MOL      0.011965
     17 H6          5.5110    6.5100   -2.9540 hc        1 MOL      0.061198
     18 H7          5.7490    4.7480   -2.7730 hc        1 MOL      0.061198
     19 N2          5.4430    4.4930    1.1360 n         1 MOL     -0.618662
     20 C7          5.4180    3.3580    2.1090 c3        1 MOL      0.618110
     21 C8          4.1820    2.4840    2.0390 c         1 MOL      0.326642
     22 O5          3.1020    2.9900    1.7190 o         1 MOL     -0.534845
     23 C9          5.6850    3.9590    3.4690 c3        1 MOL     -0.440043
     24 H8          5.1420    5.4090    1.4430 hn        1 MOL      0.281816
     25 H9          6.2740    2.7220    1.9280 h1        1 MOL     -0.023729
     26 H10         5.6770    3.1920    4.2410 hc        1 MOL      0.099076
     27 H11         6.6760    4.4260    3.4830 hc        1 MOL      0.099076
     28 H12         4.9510    4.6750    3.8160 hc        1 MOL      0.099076
     29 N3          4.1790    1.1740    2.4230 n         1 MOL     -0.317719
     30 C10         5.2510    0.3420    2.9520 c3        1 MOL     -0.078086
     31 C11         6.1130   -0.2610    1.8020 c         1 MOL      0.658199
     32 O6          5.8510    0.0070    0.6070 o         1 MOL     -0.435619
     33 C12         4.6170   -0.7490    3.7660 c3        1 MOL     -0.054700
     34 C13         3.5330   -1.4520    2.9290 c         1 MOL      0.603678
     35 O7          2.5210   -0.8110    2.4220 o         1 MOL     -0.642936
     36 O8          3.6740   -2.6850    2.8440 o         1 MOL     -0.642936
     37 H13         3.3080    0.6960    2.2230 hn        1 MOL      0.214116
     38 H14         5.8960    0.8950    3.6380 h1        1 MOL      0.034851
     39 H15         4.0940   -0.3740    4.6510 hc        1 MOL      0.023912
     40 H16         5.3820   -1.4500    4.0760 hc        1 MOL      0.023912
     41 N4          7.1750   -1.0030    2.1400 n         1 MOL     -0.662143
     42 C14         7.7810   -1.9090    1.1760 c3        1 MOL      0.272515
     43 C15         8.9680   -1.2920    0.2790 c         1 MOL      0.415171
     44 O9          9.6240   -0.3310    0.6650 o         1 MOL     -0.469790
     45 H17         7.3880   -1.0720    3.1260 hn        1 MOL      0.336514
     46 H18         6.9260   -2.3590    0.6730 h1        1 MOL      0.000264
     47 H19         8.2370   -2.7690    1.6570 h1        1 MOL      0.000264
     48 N5          9.1710   -1.8740   -0.9080 n         1 MOL     -0.469842
     49 C16         8.2140   -2.6870   -1.6810 c3        1 MOL      0.227821
     50 C17         6.8150   -2.0310   -1.9170 c         1 MOL      0.499937
     51 O10         6.7120   -0.8100   -1.9930 o         1 MOL     -0.455838
     52 C18         8.9040   -2.8260   -3.0770 c3        1 MOL     -0.421870
     53 C19        10.1550   -3.6720   -3.0860 c         1 MOL      0.669594
     54 N6         10.0710   -4.9340   -2.9490 n         1 MOL     -0.716522
     55 O11        11.3090   -3.2280   -3.0600 o         1 MOL     -0.568150
     56 H20         9.9130   -1.4700   -1.4550 hn        1 MOL      0.315223
     57 H21         8.1420   -3.6630   -1.2040 h1        1 MOL     -0.028014
     58 H22         9.0620   -1.8310   -3.4940 hc        1 MOL      0.124393
     59 H23         8.1720   -3.2890   -3.7430 hc        1 MOL      0.124393
     60 H24         9.1890   -5.3920   -3.0950 hn        1 MOL      0.343911
     61 H25        10.8970   -5.4860   -2.7790 hn        1 MOL      0.343911
     62 N7          5.7650   -2.8600   -2.0200 n         1 MOL     -0.339388
     63 C20         4.3460   -2.3930   -2.1090 c3        1 MOL     -0.236798
     64 C21         3.3860   -3.4720   -1.6150 c         1 MOL      0.575279
     65 O12         3.5460   -4.6140   -2.0540 o         1 MOL     -0.561522
     66 H26         5.9790   -3.8420   -2.0640 hn        1 MOL      0.222938
     67 H27         4.0240   -2.2050   -3.1250 h1        1 MOL      0.129912
     68 H28         4.2000   -1.5550   -1.4190 h1        1 MOL      0.129912
     69 N8          2.3940   -3.1430   -0.7680 n         1 MOL     -0.272702
     70 C22         1.2450   -3.9180   -0.3690 c3        1 MOL     -0.283586
     71 C23        -0.0540   -3.1650   -0.6930 c         1 MOL      0.513431
     72 O13        -0.1970   -1.9780   -0.5090 o         1 MOL     -0.518053
     73 C24         1.2570   -4.3580    0.9870 c3        1 MOL      0.465683
     74 C25         2.3780   -5.2750    1.3310 c3        1 MOL     -0.387154
     75 O14         1.3360   -3.2490    1.9230 oh        1 MOL     -0.846677
     76 H29         2.3530   -2.1970   -0.4240 hn        1 MOL      0.224462
     77 H30         1.2520   -4.8160   -0.9940 h1        1 MOL      0.104525
     78 H31         0.3140   -4.8620    1.2160 h1        1 MOL      0.048222
     79 H32         2.2230   -3.0020    2.1910 ho        1 MOL      0.544516
     80 H33         2.3370   -5.4270    2.4090 hc        1 MOL      0.095182
     81 H34         2.2510   -6.2820    0.9150 hc        1 MOL      0.095182
     82 H35         3.3810   -4.9100    1.1180 hc        1 MOL      0.095182
     83 N9         -1.0470   -3.9260   -1.1810 n         1 MOL     -0.266464
     84 C26        -2.4850   -3.5160   -1.4710 c3        1 MOL     -0.206499
     85 C27        -3.3660   -3.8660   -0.2160 c         1 MOL      0.553432
     86 O15        -3.4890   -5.0240    0.1260 o         1 MOL     -0.553313
     87 C28        -3.0650   -4.1340   -2.7730 c3        1 MOL      0.230622
     88 C29        -4.5900   -3.7980   -2.8920 c3        1 MOL     -0.192664
     89 C30        -2.2980   -3.7050   -4.0150 c3        1 MOL     -0.408589
     90 C31        -5.0280   -2.3660   -3.1150 c3        1 MOL      0.192074
     91 H36        -0.8170   -4.8880   -1.3700 hn        1 MOL      0.240872
     92 H37        -2.4660   -2.4480   -1.7050 h1        1 MOL      0.172214
     93 H38        -2.9550   -5.2190   -2.6430 hc        1 MOL      0.005924
     94 H39        -5.1270   -4.0710   -1.9730 hc        1 MOL      0.023634
     95 H40        -5.0780   -4.3580   -3.6900 hc        1 MOL      0.023634
     96 H41        -2.4580   -2.6620   -4.2840 hc        1 MOL      0.097815
     97 H42        -1.2480   -3.8910   -3.7920 hc        1 MOL      0.097815
     98 H43        -2.6580   -4.3120   -4.8500 hc        1 MOL      0.097815
     99 H44        -4.7700   -1.8020   -2.2230 hc        1 MOL     -0.046430
    100 H45        -4.5870   -1.8630   -3.9780 hc        1 MOL     -0.046430
    101 H46        -6.0500   -2.0610   -3.3190 hc        1 MOL     -0.046430
    102 N10        -3.9440   -2.8660    0.3790 n         1 MOL     -0.263133
    103 C32        -4.7720   -2.9580    1.6500 c3        1 MOL      0.019326
    104 C33        -6.2120   -2.3770    1.5000 c         1 MOL      0.569236
    105 O16        -7.1370   -2.8270    2.1660 o         1 MOL     -0.546353
    106 C34        -3.9410   -2.2750    2.7770 c3        1 MOL     -0.187688
    107 C35        -2.5590   -2.9350    2.8550 c         1 MOL      0.704954
    108 O17        -2.4130   -4.0630    3.3930 o         1 MOL     -0.669909
    109 O18        -1.5420   -2.3180    2.4860 o         1 MOL     -0.669909
    110 H47        -3.5750   -1.9540    0.1410 hn        1 MOL      0.221084
    111 H48        -4.9370   -4.0090    1.8740 h1        1 MOL      0.083389
    112 H49        -4.4700   -2.3800    3.7290 hc        1 MOL      0.029769
    113 H50        -3.7780   -1.2180    2.5940 hc        1 MOL      0.029769
    114 N11        -6.3260   -1.2160    0.8310 n         1 MOL     -0.701585
    115 C36        -7.5430   -0.4010    0.5820 c3        1 MOL      0.581004
    116 C37        -7.3620    1.1690    0.5710 c         1 MOL      0.165680
    117 O19        -7.8740    1.8340   -0.3490 o         1 MOL     -0.435272
    118 C38        -8.3360   -0.9530   -0.6470 c3        1 MOL     -0.462260
    119 C39        -9.8390   -0.5960   -0.7760 ca        1 MOL      0.209384
    120 C40       -10.5840    0.2270    0.1640 ca        1 MOL     -0.176906
    121 C41       -10.5630   -1.0960   -1.8300 ca        1 MOL     -0.176906
    122 C42       -11.9550    0.4730   -0.0780 ca        1 MOL     -0.110329
    123 C43       -11.8730   -0.8040   -2.1610 ca        1 MOL     -0.110329
    124 C44       -12.6050   -0.0340   -1.2200 ca        1 MOL     -0.152120
    125 H51        -5.4500   -0.8900    0.4520 hn        1 MOL      0.352975
    126 H52        -8.0720   -0.6320    1.5090 h1        1 MOL     -0.020272
    127 H53        -8.2940   -2.0350   -0.6220 hc        1 MOL      0.137502
    128 H54        -7.7640   -0.6950   -1.5400 hc        1 MOL      0.137502
    129 H55       -10.1400    0.7140    1.0270 ha        1 MOL      0.109233
    130 H56        -9.9820   -1.6830   -2.5180 ha        1 MOL      0.109233
    131 H57       -12.4990    1.1780    0.5390 ha        1 MOL      0.108059
    132 H58       -12.3550   -1.3040   -2.9880 ha        1 MOL      0.108059
    133 H59       -13.6350    0.1180   -1.5240 ha        1 MOL      0.102787
    134 N12        -6.5120    1.7720    1.4180 n         1 MOL     -0.060023
    135 C45        -6.1850    3.2140    1.3400 c3        1 MOL     -0.001315
    136 C46        -5.6280    3.6560   -0.0370 c         1 MOL      0.304965
    137 O20        -5.5750    4.8430   -0.3800 o         1 MOL     -0.490201
    138 C47        -5.2110    3.5510    2.5090 c3        1 MOL      0.086866
    139 C48        -5.3570    2.4010    3.5270 c3        1 MOL     -0.168709
    140 C49        -5.7200    1.2080    2.5460 c3        1 MOL     -0.060201
    141 H60        -7.0780    3.8280    1.4360 h1        1 MOL      0.074210
    142 H61        -4.2080    3.7120    2.1230 hc        1 MOL      0.000900
    143 H62        -5.5500    4.5090    2.9070 hc        1 MOL      0.000900
    144 H63        -4.3810    2.2150    3.9970 hc        1 MOL      0.051662
    145 H64        -6.1280    2.5640    4.2870 hc        1 MOL      0.051662
    146 H65        -4.7430    0.8780    2.1930 h1        1 MOL      0.100491
    147 H66        -6.3180    0.5640    3.1840 h1        1 MOL      0.100491
    148 N13        -5.0790    2.6700   -0.7860 n         1 MOL     -0.050320
    149 C50        -4.5070    2.9340   -2.1370 c3        1 MOL     -0.220735
    150 C51        -5.6260    3.2410   -3.1320 c         1 MOL      0.508526
    151 O21        -5.5420    4.3130   -3.7570 o         1 MOL     -0.537082
    152 C52        -3.6370    1.6990   -2.5550 c3        1 MOL     -0.066392
    153 C53        -2.4160    1.3400   -1.7120 c3        1 MOL     -0.296217
    154 C54        -2.7860    0.5830   -0.4450 c         1 MOL      0.790032
    155 O22        -1.8650    0.4650    0.3770 o         1 MOL     -0.827833
    156 O23        -3.9320    0.0730   -0.2400 o         1 MOL     -0.827833
    157 H67        -5.0950    1.7710   -0.3390 hn        1 MOL      0.244808
    158 H68        -3.9020    3.8350   -2.1890 h1        1 MOL      0.135638
    159 H69        -3.2210    1.9670   -3.5220 hc        1 MOL      0.042102
    160 H70        -4.1980    0.7610   -2.6460 hc        1 MOL      0.042102
    161 H71        -2.0390    2.3110   -1.4070 hc        1 MOL      0.111732
    162 H72        -1.7490    0.7370   -2.3360 hc        1 MOL      0.111732
    163 N14        -6.7010    2.4960   -3.0620 n         1 MOL     -0.234979
    164 C55        -7.8570    2.7970   -3.8940 c3        1 MOL     -0.308579
    165 H73        -8.2790    3.7560   -3.5950 h1        1 MOL      0.121483
    166 H74        -7.5520    2.8450   -4.9380 h1        1 MOL      0.121483
    167 H75        -8.6080    2.0160   -3.7700 h1        1 MOL      0.121483
    168 H76        -6.7790    1.8850   -2.2660 hn        1 MOL      0.229141
    169 Ca1         0.1040   -0.5130    1.8860 Ca        1 MOL      1.747392
    170 O24        -1.8930    0.8850    2.9880 oh        1 MOL     -0.823088
    171 H77        -1.9850    1.7650    3.3530 ho        1 MOL      0.405600
    172 H78        -2.6120    0.8130    2.3600 ho        1 MOL      0.405600
    173 O25         0.7120    2.1160    1.9360 oh        1 MOL     -0.823088
    174 H79         0.0160    2.6030    1.4810 ho        1 MOL      0.405600
    175 H80         1.4510    2.7200    1.9470 ho        1 MOL      0.405600
    176 O26         0.2950   -0.2430    4.6330 oh        1 MOL     -0.823088
    177 H81         0.5500    0.5630    5.0830 ho        1 MOL      0.405600
    178 H82         0.1730   -0.8840    5.3310 ho        1 MOL      0.405600
    179 O27         1.6320    0.2470   -0.3430 oh        1 MOL     -0.823088
    180 H83         1.2070    0.6740   -1.0820 ho        1 MOL      0.405600
    181 H84         2.5340    0.5770   -0.3560 ho        1 MOL      0.405600
@<TRIPOS>BOND
     1    1    2 1   
     2    1    4 1   
     3    1    5 1   
     4    1    6 1   
     5    2    3 2   
     6    2    7 1   
     7    7    8 1   
     8    7   15 1   
     9    8    9 1   
    10    8   11 1   
    11    8   16 1   
    12    9   10 2   
    13    9   19 1   
    14   11   12 1   
    15   11   17 1   
    16   11   18 1   
    17   12   13 1   
    18   12   14 1   
    19   19   20 1   
    20   19   24 1   
    21   20   21 1   
    22   20   23 1   
    23   20   25 1   
    24   21   22 2   
    25   21   29 1   
    26   23   26 1   
    27   23   27 1   
    28   23   28 1   
    29   29   30 1   
    30   29   37 1   
    31   30   31 1   
    32   30   33 1   
    33   30   38 1   
    34   31   32 2   
    35   31   41 1   
    36   33   34 1   
    37   33   39 1   
    38   33   40 1   
    39   34   35 1   
    40   34   36 1   
    41   41   42 1   
    42   41   45 1   
    43   42   43 1   
    44   42   46 1   
    45   42   47 1   
    46   43   44 2   
    47   43   48 1   
    48   48   49 1   
    49   48   56 1   
    50   49   50 1   
    51   49   52 1   
    52   49   57 1   
    53   50   51 2   
    54   50   62 1   
    55   52   53 1   
    56   52   58 1   
    57   52   59 1   
    58   53   54 1   
    59   53   55 2   
    60   54   60 1   
    61   54   61 1   
    62   62   63 1   
    63   62   66 1   
    64   63   64 1   
    65   63   67 1   
    66   63   68 1   
    67   64   65 2   
    68   64   69 1   
    69   69   70 1   
    70   69   76 1   
    71   70   71 1   
    72   70   73 1   
    73   70   77 1   
    74   71   72 2   
    75   71   83 1   
    76   73   74 1   
    77   73   75 1   
    78   73   78 1   
    79   74   80 1   
    80   74   81 1   
    81   74   82 1   
    82   75   79 1   
    83   83   84 1   
    84   83   91 1   
    85   84   85 1   
    86   84   87 1   
    87   84   92 1   
    88   85   86 2   
    89   85  102 1   
    90   87   88 1   
    91   87   89 1   
    92   87   93 1   
    93   88   90 1   
    94   88   94 1   
    95   88   95 1   
    96   89   96 1   
    97   89   97 1   
    98   89   98 1   
    99   90   99 1   
   100   90  100 1   
   101   90  101 1   
   102  102  103 1   
   103  102  110 1   
   104  103  104 1   
   105  103  106 1   
   106  103  111 1   
   107  104  105 2   
   108  104  114 1   
   109  106  107 1   
   110  106  112 1   
   111  106  113 1   
   112  107  108 1   
   113  107  109 1   
   114  114  115 1   
   115  114  125 1   
   116  115  116 1   
   117  115  118 1   
   118  115  126 1   
   119  116  117 2   
   120  116  134 1   
   121  118  119 1   
   122  118  127 1   
   123  118  128 1   
   124  119  120 ar  
   125  119  121 ar  
   126  120  122 ar  
   127  120  129 1   
   128  121  123 ar  
   129  121  130 1   
   130  122  124 ar  
   131  122  131 1   
   132  123  124 ar  
   133  123  132 1   
   134  124  133 1   
   135  134  135 1   
   136  134  140 1   
   137  135  136 1   
   138  135  138 1   
   139  135  141 1   
   140  136  137 2   
   141  136  148 1   
   142  138  139 1   
   143  138  142 1   
   144  138  143 1   
   145  139  140 1   
   146  139  144 1   
   147  139  145 1   
   148  140  146 1   
   149  140  147 1   
   150  148  149 1   
   151  148  157 1   
   152  149  150 1   
   153  149  152 1   
   154  149  158 1   
   155  150  151 2   
   156  150  163 1   
   157  152  153 1   
   158  152  159 1   
   159  152  160 1   
   160  153  154 1   
   161  153  161 1   
   162  153  162 1   
   163  154  155 1   
   164  154  156 1   
   165  163  164 1   
   166  163  168 1   
   167  164  165 1   
   168  164  166 1   
   169  164  167 1   
   170  170  171 1   
   171  170  172 1   
   172  173  174 1   
   173  173  175 1   
   174  176  177 1   
   175  176  178 1   
   176  179  180 1   
   177  179  181 1   
@<TRIPOS>SUBSTRUCTURE
     1 MOL         1 TEMP              0 ****  ****    0 ROOT
