@<TRIPOS>MOLECULE
MOL
  175   173     1     0     0
SMALL
resp


@<TRIPOS>ATOM
      1 C1         -6.1680    7.9800    1.1250 c3        1 MOL     -0.393485
      2 C2         -7.1440    7.0780    0.3710 c         1 MOL      0.742724
      3 O1         -7.1970    7.1350   -0.8110 o         1 MOL     -0.563054
      4 H1         -6.5210    8.1220    2.1460 hc        1 MOL      0.091728
      5 H2         -5.1820    7.5160    1.1430 hc        1 MOL      0.091728
      6 H3         -6.1060    8.9470    0.6250 hc        1 MOL      0.091728
      7 N1         -7.9750    6.2260    1.0720 n         1 MOL     -0.639654
      8 C3         -8.9010    5.4320    0.4100 c3        1 MOL      0.385217
      9 C4         -8.2970    4.2070   -0.3700 c         1 MOL      0.519213
     10 O2         -8.9610    3.5240   -1.1640 o         1 MOL     -0.494085
     11 C5         -9.9700    4.9880    1.3910 c3        1 MOL     -0.352010
     12 C6        -11.2180    4.3290    0.7960 c         1 MOL      0.745166
     13 O3        -11.8430    4.8810   -0.1230 o         1 MOL     -0.729919
     14 O4        -11.5370    3.1790    1.2020 o         1 MOL     -0.729919
     15 H4         -7.8770    6.0230    2.0570 hn        1 MOL      0.305124
     16 H5         -9.3040    6.0170   -0.4190 h1        1 MOL     -0.007994
     17 H6        -10.3230    5.7750    2.0520 hc        1 MOL      0.029087
     18 H7         -9.3940    4.2940    2.0040 hc        1 MOL      0.029087
     19 N2         -7.0040    3.9110   -0.0310 n         1 MOL     -0.599244
     20 C7         -6.1730    3.0320   -0.7680 c3        1 MOL      0.324513
     21 C8         -5.1200    2.3080    0.2330 c         1 MOL      0.448223
     22 O5         -4.3170    3.0140    0.8740 o         1 MOL     -0.523400
     23 C9         -5.5670    3.8580   -1.8750 c3        1 MOL     -0.295881
     24 H8         -6.5630    4.4960    0.6610 hn        1 MOL      0.253617
     25 H9         -6.8070    2.3180   -1.2970 h1        1 MOL      0.031182
     26 H10        -4.8010    4.5150   -1.4530 hc        1 MOL      0.083727
     27 H11        -4.9760    3.1720   -2.4750 hc        1 MOL      0.083727
     28 H12        -6.2330    4.3910   -2.5530 hc        1 MOL      0.083727
     29 N3         -4.9070    0.9980    0.2020 n         1 MOL     -0.414930
     30 C10        -5.5400    0.0020   -0.6150 c3        1 MOL      0.232201
     31 C11        -5.6500   -1.4080   -0.0080 c         1 MOL      0.303465
     32 O6         -4.7330   -1.8290    0.6850 o         1 MOL     -0.460948
     33 C12        -4.7380   -0.0460   -1.9340 c3        1 MOL     -0.510277
     34 C13        -3.2290   -0.3590   -1.7520 c         1 MOL      0.892181
     35 O7         -2.6750   -1.3520   -2.3170 o         1 MOL     -0.746603
     36 O8         -2.4240    0.4120   -1.1580 o         1 MOL     -0.746603
     37 H13        -4.1910    0.6650    0.8210 hn        1 MOL      0.265548
     38 H14        -6.5270    0.4480   -0.7300 h1        1 MOL      0.008573
     39 H15        -4.6150    0.9180   -2.4300 hc        1 MOL      0.115693
     40 H16        -5.3210   -0.7070   -2.5770 hc        1 MOL      0.115693
     41 N4         -6.6670   -2.1950   -0.3480 n         1 MOL     -0.260579
     42 C14        -6.9020   -3.6050   -0.1090 c3        1 MOL      0.013350
     43 C15        -6.7020   -4.4920   -1.3210 c         1 MOL      0.498185
     44 O9         -7.6760   -4.7170   -2.0830 o         1 MOL     -0.550723
     45 H17        -7.3140   -1.7510   -0.9880 hn        1 MOL      0.277145
     46 H18        -7.9340   -3.5820    0.2300 h1        1 MOL      0.053178
     47 H19        -6.2310   -4.0110    0.6470 h1        1 MOL      0.053178
     48 N5         -5.5130   -5.0590   -1.6380 n         1 MOL     -0.491887
     49 C16        -4.1780   -4.7090   -1.1300 c3        1 MOL      0.092280
     50 C17        -3.9610   -5.4800    0.2000 c         1 MOL      0.613000
     51 O10        -4.1970   -6.6600    0.3480 o         1 MOL     -0.583676
     52 C18        -3.1270   -4.9830   -2.2080 c3        1 MOL     -0.284118
     53 C19        -1.8040   -4.2400   -1.9270 c         1 MOL      0.590935
     54 N6         -0.8960   -4.2920   -2.8840 n         1 MOL     -0.816154
     55 O11        -1.6890   -3.6240   -0.8830 o         1 MOL     -0.599403
     56 H20        -5.5230   -5.8020   -2.3220 hn        1 MOL      0.307324
     57 H21        -4.1600   -3.6450   -0.9120 h1        1 MOL      0.124799
     58 H22        -3.5760   -4.6370   -3.1370 hc        1 MOL      0.101386
     59 H23        -2.8650   -6.0410   -2.2420 hc        1 MOL      0.101386
     60 H24        -1.1000   -4.8160   -3.7210 hn        1 MOL      0.381744
     61 H25         0.0640   -4.0240   -2.7560 hn        1 MOL      0.381744
     62 N7         -3.5210   -4.6640    1.1550 n         1 MOL     -0.192467
     63 C20        -3.1500   -5.1740    2.4590 c3        1 MOL     -0.257305
     64 C21        -1.6980   -5.4120    2.7160 c         1 MOL      0.636887
     65 O12        -1.3790   -6.1830    3.5710 o         1 MOL     -0.591016
     66 H26        -3.1020   -3.7700    0.9110 hn        1 MOL      0.161331
     67 H27        -3.6670   -6.1230    2.5890 h1        1 MOL      0.091248
     68 H28        -3.4670   -4.3700    3.1280 h1        1 MOL      0.091248
     69 N8         -0.8740   -4.8780    1.8340 n         1 MOL     -0.230345
     70 C22         0.5840   -5.0480    1.7970 c3        1 MOL     -0.204863
     71 C23         1.3270   -3.7510    1.5070 c         1 MOL      0.163441
     72 O13         0.7340   -2.9550    0.7810 o         1 MOL     -0.333653
     73 C24         0.8330   -6.0230    0.6870 c3        1 MOL      0.380044
     74 C25         0.4430   -7.4810    1.0780 c3        1 MOL     -0.559930
     75 O14         0.2200   -5.7940   -0.5190 oh        1 MOL     -0.575032
     76 H29        -1.2180   -4.3810    1.0210 hn        1 MOL      0.251914
     77 H30         0.9000   -5.4180    2.7750 h1        1 MOL      0.106755
     78 H31         1.8910   -6.1400    0.4270 h1        1 MOL      0.033318
     79 H32         0.7660   -5.1280   -0.9500 ho        1 MOL      0.441348
     80 H33        -0.6370   -7.6070    1.1190 hc        1 MOL      0.144227
     81 H34         0.8880   -8.1110    0.3020 hc        1 MOL      0.144227
     82 H35         0.9720   -7.7950    1.9780 hc        1 MOL      0.144227
     83 N9          2.4020   -3.5100    2.1940 n         1 MOL     -0.101960
     84 C26         3.2650   -2.3390    2.1040 c3        1 MOL      0.039658
     85 C27         4.2630   -2.6630    0.9970 c         1 MOL      0.184133
     86 O15         5.0480   -3.6140    1.1640 o         1 MOL     -0.542575
     87 C28         3.9360   -2.0770    3.5060 c3        1 MOL      0.288150
     88 C29         5.2190   -1.1920    3.4500 c3        1 MOL     -0.026872
     89 C30         2.8900   -1.6510    4.5280 c3        1 MOL     -0.432915
     90 C31         4.9930    0.2340    2.9420 c3        1 MOL     -0.042592
     91 H36         2.7190   -4.3020    2.7460 hn        1 MOL      0.226855
     92 H37         2.6450   -1.4740    1.8770 h1        1 MOL      0.010920
     93 H38         4.2210   -3.0710    3.8670 hc        1 MOL     -0.042988
     94 H39         5.8820   -1.7740    2.8230 hc        1 MOL     -0.012006
     95 H40         5.6220   -1.2270    4.4730 hc        1 MOL     -0.012006
     96 H41         3.4340   -1.2490    5.3880 hc        1 MOL      0.099922
     97 H42         2.2580   -0.8340    4.1880 hc        1 MOL      0.099922
     98 H43         2.2940   -2.5060    4.8380 hc        1 MOL      0.099922
     99 H44         5.8420    0.8840    3.1450 hc        1 MOL      0.005325
    100 H45         5.0180    0.1300    1.8600 hc        1 MOL      0.005325
    101 H46         4.1170    0.7110    3.3880 hc        1 MOL      0.005325
    102 N10         4.0480   -2.0920   -0.1800 n         1 MOL      0.077926
    103 C32         4.8700   -2.4010   -1.3810 c3        1 MOL      0.068401
    104 C33         5.9520   -1.2610   -1.5970 c         1 MOL      0.453255
    105 O16         6.6390   -1.3880   -2.6150 o         1 MOL     -0.549245
    106 C34         3.8330   -2.5500   -2.5820 c3        1 MOL     -0.189355
    107 C35         2.5580   -3.2530   -2.2270 c         1 MOL      0.808377
    108 O17         2.5580   -4.4680   -1.9280 o         1 MOL     -0.755566
    109 O18         1.4630   -2.6500   -2.3020 o         1 MOL     -0.755566
    110 H47         3.3050   -1.4360   -0.3220 hn        1 MOL      0.072076
    111 H48         5.4340   -3.3270   -1.3130 h1        1 MOL      0.080492
    112 H49         4.3830   -3.1030   -3.3380 hc        1 MOL      0.031262
    113 H50         3.5280   -1.5990   -3.0070 hc        1 MOL      0.031262
    114 N11         5.9610   -0.2610   -0.7840 n         1 MOL     -0.373118
    115 C36         6.9340    0.8190   -0.9000 c3        1 MOL      0.179785
    116 C37         6.3870    2.1570   -0.5810 c         1 MOL      0.278118
    117 O19         6.0710    2.2960    0.6390 o         1 MOL     -0.491855
    118 C38         8.2780    0.5060   -0.1900 c3        1 MOL     -0.305034
    119 C39         9.3730    1.4570   -0.1960 ca        1 MOL      0.232908
    120 C40         9.9380    1.9580    0.9800 ca        1 MOL     -0.200071
    121 C41        10.0710    1.7520   -1.3490 ca        1 MOL     -0.200071
    122 C42        11.0730    2.8770    1.0920 ca        1 MOL     -0.095775
    123 C43        11.2720    2.5390   -1.3570 ca        1 MOL     -0.095775
    124 C44        11.7690    3.0910   -0.1190 ca        1 MOL     -0.176492
    125 H51         5.2790   -0.1820   -0.0380 hn        1 MOL      0.251778
    126 H52         7.1570    0.7260   -1.9630 h1        1 MOL      0.031680
    127 H53         8.5850   -0.4960   -0.4980 hc        1 MOL      0.117062
    128 H54         8.0170    0.3720    0.8590 hc        1 MOL      0.117062
    129 H55         9.4810    1.6730    1.9190 ha        1 MOL      0.114882
    130 H56         9.7010    1.2740   -2.2420 ha        1 MOL      0.114882
    131 H57        11.4580    3.3220    1.9960 ha        1 MOL      0.114809
    132 H58        11.8330    2.6820   -2.2750 ha        1 MOL      0.114809
    133 H59        12.6190    3.7660   -0.0800 ha        1 MOL      0.120803
    134 N12         6.2390    3.0760   -1.4930 n         1 MOL      0.035714
    135 C45         6.1180    4.4740   -1.0930 c3        1 MOL     -0.020253
    136 C46         4.6860    4.8720   -0.5420 c         1 MOL      0.471134
    137 O20         4.5490    6.0330   -0.1180 o         1 MOL     -0.539533
    138 C47         6.5110    5.1940   -2.3810 c3        1 MOL     -0.260828
    139 C48         6.1740    4.1970   -3.4610 c3        1 MOL      0.131746
    140 C49         6.5040    2.8490   -2.8730 c3        1 MOL     -0.300681
    141 H60         6.8430    4.5760   -0.2850 h1        1 MOL      0.085406
    142 H61         5.9090    6.1060   -2.3650 hc        1 MOL      0.097980
    143 H62         7.5900    5.3480   -2.4660 hc        1 MOL      0.097980
    144 H63         5.0970    4.2290   -3.6200 hc        1 MOL      0.010764
    145 H64         6.6300    4.3650   -4.4380 hc        1 MOL      0.010764
    146 H65         5.8890    2.0530   -3.3100 h1        1 MOL      0.119223
    147 H66         7.5350    2.5460   -2.9970 h1        1 MOL      0.119223
    148 N13         3.6950    4.0340   -0.4770 n         1 MOL     -0.180419
    149 C50         2.4960    4.3260    0.3680 c3        1 MOL     -0.307722
    150 C51         2.7200    4.7230    1.8510 c         1 MOL      0.614931
    151 O21         1.8720    5.3990    2.4720 o         1 MOL     -0.530189
    152 C52         1.6580    2.9870    0.4410 c3        1 MOL     -0.202496
    153 C53         2.2150    1.7740    1.0970 c3        1 MOL     -0.227158
    154 C54         1.4250    0.5290    0.6280 c         1 MOL      0.707790
    155 O22         0.2840    0.2970    1.1080 o         1 MOL     -0.732220
    156 O23         1.8170   -0.1910   -0.3540 o         1 MOL     -0.732220
    157 H67         3.7240    3.1580   -0.9750 hn        1 MOL      0.215368
    158 H68         1.9980    5.1570   -0.1330 h1        1 MOL      0.167231
    159 H69         1.3810    2.6310   -0.5470 hc        1 MOL      0.143231
    160 H70         0.7240    3.2190    0.9710 hc        1 MOL      0.143231
    161 H71         2.1320    1.8280    2.1920 hc        1 MOL      0.090359
    162 H72         3.2510    1.5640    0.8680 hc        1 MOL      0.090359
    163 N14         3.9120    4.3940    2.4530 n         1 MOL     -0.279877
    164 C55         4.2750    4.9160    3.8060 c3        1 MOL     -0.097745
    165 H73         3.3680    5.0770    4.3880 h1        1 MOL      0.067731
    166 H74         4.9100    4.1920    4.3170 h1        1 MOL      0.067731
    167 H75         4.8100    5.8600    3.7000 h1        1 MOL      0.067731
    168 H76         4.6300    3.8930    1.9480 hn        1 MOL      0.213180
    169 Ca1        -0.4480   -1.2640   -0.8580 Ca        1 MOL      1.738938
    170 O24        -2.1950   -1.7730    1.2450 oh        1 MOL     -0.887221
    171 H77        -3.1230   -1.6940    1.0080 ho        1 MOL      0.422305
    172 H78        -2.1260   -1.3110    2.0740 ho        1 MOL      0.422305
    173 O25         0.3080    0.2900   -2.9630 oh        1 MOL     -0.887221
    174 H79         1.1870    0.0200   -3.2300 ho        1 MOL      0.422305
    175 H80        -0.0500    0.7340   -3.7330 ho        1 MOL      0.422305
@<TRIPOS>BOND
     1    1    2 1   
     2    1    4 1   
     3    1    5 1   
     4    1    6 1   
     5    2    3 2   
     6    2    7 1   
     7    7    8 1   
     8    7   15 1   
     9    8    9 1   
    10    8   11 1   
    11    8   16 1   
    12    9   10 2   
    13    9   19 1   
    14   11   12 1   
    15   11   17 1   
    16   11   18 1   
    17   12   13 1   
    18   12   14 1   
    19   19   20 1   
    20   19   24 1   
    21   20   21 1   
    22   20   23 1   
    23   20   25 1   
    24   21   22 2   
    25   21   29 1   
    26   23   26 1   
    27   23   27 1   
    28   23   28 1   
    29   29   30 1   
    30   29   37 1   
    31   30   31 1   
    32   30   33 1   
    33   30   38 1   
    34   31   32 2   
    35   31   41 1   
    36   33   34 1   
    37   33   39 1   
    38   33   40 1   
    39   34   35 1   
    40   34   36 1   
    41   41   42 1   
    42   41   45 1   
    43   42   43 1   
    44   42   46 1   
    45   42   47 1   
    46   43   44 2   
    47   43   48 1   
    48   48   49 1   
    49   48   56 1   
    50   49   50 1   
    51   49   52 1   
    52   49   57 1   
    53   50   51 2   
    54   50   62 1   
    55   52   53 1   
    56   52   58 1   
    57   52   59 1   
    58   53   54 1   
    59   53   55 2   
    60   54   60 1   
    61   54   61 1   
    62   62   63 1   
    63   62   66 1   
    64   63   64 1   
    65   63   67 1   
    66   63   68 1   
    67   64   65 2   
    68   64   69 1   
    69   69   70 1   
    70   69   76 1   
    71   70   71 1   
    72   70   73 1   
    73   70   77 1   
    74   71   72 2   
    75   71   83 1   
    76   73   74 1   
    77   73   75 1   
    78   73   78 1   
    79   74   80 1   
    80   74   81 1   
    81   74   82 1   
    82   75   79 1   
    83   83   84 1   
    84   83   91 1   
    85   84   85 1   
    86   84   87 1   
    87   84   92 1   
    88   85   86 2   
    89   85  102 1   
    90   87   88 1   
    91   87   89 1   
    92   87   93 1   
    93   88   90 1   
    94   88   94 1   
    95   88   95 1   
    96   89   96 1   
    97   89   97 1   
    98   89   98 1   
    99   90   99 1   
   100   90  100 1   
   101   90  101 1   
   102  102  103 1   
   103  102  110 1   
   104  103  104 1   
   105  103  106 1   
   106  103  111 1   
   107  104  105 2   
   108  104  114 1   
   109  106  107 1   
   110  106  112 1   
   111  106  113 1   
   112  107  108 1   
   113  107  109 1   
   114  114  115 1   
   115  114  125 1   
   116  115  116 1   
   117  115  118 1   
   118  115  126 1   
   119  116  117 2   
   120  116  134 1   
   121  118  119 1   
   122  118  127 1   
   123  118  128 1   
   124  119  120 ar  
   125  119  121 ar  
   126  120  122 ar  
   127  120  129 1   
   128  121  123 ar  
   129  121  130 1   
   130  122  124 ar  
   131  122  131 1   
   132  123  124 ar  
   133  123  132 1   
   134  124  133 1   
   135  134  135 1   
   136  134  140 1   
   137  135  136 1   
   138  135  138 1   
   139  135  141 1   
   140  136  137 2   
   141  136  148 1   
   142  138  139 1   
   143  138  142 1   
   144  138  143 1   
   145  139  140 1   
   146  139  144 1   
   147  139  145 1   
   148  140  146 1   
   149  140  147 1   
   150  148  149 1   
   151  148  157 1   
   152  149  150 1   
   153  149  152 1   
   154  149  158 1   
   155  150  151 2   
   156  150  163 1   
   157  152  153 1   
   158  152  159 1   
   159  152  160 1   
   160  153  154 1   
   161  153  161 1   
   162  153  162 1   
   163  154  155 1   
   164  154  156 1   
   165  163  164 1   
   166  163  168 1   
   167  164  165 1   
   168  164  166 1   
   169  164  167 1   
   170  170  171 1   
   171  170  172 1   
   172  173  174 1   
   173  173  175 1   
@<TRIPOS>SUBSTRUCTURE
     1 MOL         1 TEMP              0 ****  ****    0 ROOT
