@<TRIPOS>MOLECULE
MOL
  182   178     1     0     0
SMALL
resp


@<TRIPOS>ATOM
      1 C1          2.2360   -5.4700    5.4070 c3        1 MOL     -0.408162
      2 C2          1.8760   -4.7810    4.0510 c         1 MOL      0.760916
      3 O1          0.9380   -5.1160    3.3560 o         1 MOL     -0.646703
      4 H1          2.3260   -6.5460    5.2550 hc        1 MOL      0.105076
      5 H2          3.1830   -5.0750    5.7760 hc        1 MOL      0.105076
      6 H3          1.4500   -5.2720    6.1350 hc        1 MOL      0.105076
      7 N1          2.8290   -4.0330    3.6300 n         1 MOL     -0.469692
      8 C3          2.9620   -3.3010    2.3820 c3        1 MOL     -0.118945
      9 C4          3.4120   -4.2020    1.1470 c         1 MOL      0.769082
     10 O2          4.5090   -4.7460    1.2280 o         1 MOL     -0.570893
     11 C5          3.8960   -2.1190    2.5820 c3        1 MOL      0.098192
     12 C6          3.7670   -1.1050    1.4130 c         1 MOL      0.304507
     13 O3          3.9880    0.1650    1.5960 o         1 MOL     -0.620208
     14 O4          3.4170   -1.4830    0.2810 o         1 MOL     -0.620208
     15 H4          3.6050   -3.9500    4.2620 hn        1 MOL      0.293246
     16 H5          1.9350   -3.0220    2.1460 h1        1 MOL     -0.058968
     17 H6          4.8940   -2.5550    2.6530 hc        1 MOL      0.026450
     18 H7          3.6770   -1.5820    3.4990 hc        1 MOL      0.026450
     19 N2          2.6070   -4.2640    0.1310 n         1 MOL     -0.584900
     20 C7          2.9710   -5.0570   -1.0470 c3        1 MOL      0.039915
     21 C8          4.1670   -4.4780   -1.8750 c         1 MOL      0.455665
     22 O5          4.8020   -5.2710   -2.5680 o         1 MOL     -0.545610
     23 C9          1.7770   -5.1770   -2.0110 c3        1 MOL     -0.191437
     24 C10         0.4600   -5.6890   -1.4320 c3        1 MOL      0.362214
     25 C11        -0.5810   -6.0480   -2.5650 c3        1 MOL     -0.175784
     26 C12        -1.9040   -6.3530   -1.9150 c3        1 MOL      0.218290
     27 N3         -1.9440   -7.8660   -1.6020 n4        1 MOL     -0.433070
     28 H8          1.7540   -3.7250    0.1240 hn        1 MOL      0.371201
     29 H9          3.2910   -6.0350   -0.7030 h1        1 MOL      0.114618
     30 H10         2.1460   -5.8420   -2.7910 hc        1 MOL      0.041577
     31 H11         1.5060   -4.1690   -2.3320 hc        1 MOL      0.041577
     32 H12         0.0780   -4.9400   -0.7430 hc        1 MOL     -0.080713
     33 H13         0.5880   -6.6360   -0.9120 hc        1 MOL     -0.080713
     34 H14        -0.2280   -6.9500   -3.0810 hc        1 MOL      0.059383
     35 H15        -0.7280   -5.1900   -3.2220 hc        1 MOL      0.059383
     36 H16        -2.7440   -6.1680   -2.5890 hx        1 MOL      0.023829
     37 H17        -2.0280   -5.7350   -1.0310 hx        1 MOL      0.023829
     38 H18        -1.5430   -8.3540   -2.3890 hn        1 MOL      0.295012
     39 H19        -1.3630   -8.0280   -0.7900 hn        1 MOL      0.295012
     40 H20        -2.9080   -8.0670   -1.3990 hn        1 MOL      0.295012
     41 N4          4.4790   -3.2000   -2.0820 n         1 MOL     -0.253705
     42 C13         5.5990   -2.6450   -2.7840 c3        1 MOL      0.018730
     43 C14         6.7190   -1.9340   -1.8970 c         1 MOL      0.258498
     44 O6          7.8650   -1.5020   -2.2920 o         1 MOL     -0.472199
     45 C15         5.1180   -1.6450   -3.8280 c3        1 MOL     -0.254628
     46 C16         4.2370   -0.4740   -3.3670 c         1 MOL      0.599361
     47 O7          4.0690   -0.3250   -2.1380 o         1 MOL     -0.669203
     48 O8          3.7610    0.3100   -4.2250 o         1 MOL     -0.669203
     49 H21         3.9520   -2.4810   -1.6130 hn        1 MOL      0.252313
     50 H22         6.0660   -3.3950   -3.4260 h1        1 MOL      0.130720
     51 H23         4.5190   -2.1380   -4.6000 hc        1 MOL      0.097482
     52 H24         5.9710   -1.2850   -4.3940 hc        1 MOL      0.097482
     53 N5          6.3900   -1.7720   -0.5990 n         1 MOL     -0.004544
     54 C17         7.1380   -0.9920    0.3790 c3        1 MOL     -0.372303
     55 C18         7.1620    0.4710    0.2440 c         1 MOL      0.671952
     56 O9          7.8180    1.1240    0.9970 o         1 MOL     -0.588588
     57 H25         5.4640   -2.0210   -0.2640 hn        1 MOL      0.094146
     58 H26         8.1600   -1.3830    0.3680 h1        1 MOL      0.151334
     59 H27         6.7440   -1.1570    1.3730 h1        1 MOL      0.151334
     60 N6          6.4090    1.1090   -0.6930 n         1 MOL     -0.296817
     61 C19         6.3830    2.4960   -1.1450 c3        1 MOL     -0.048644
     62 C20         4.9360    3.0950   -1.1180 c         1 MOL      0.856821
     63 O10         3.9850    2.3530   -0.8510 o         1 MOL     -0.739317
     64 C21         6.7870    2.4560   -2.6490 c3        1 MOL     -0.422235
     65 C22         8.2500    2.0430   -2.8240 c         1 MOL      0.722921
     66 N7          9.0800    2.4300   -1.8650 n         1 MOL     -0.810324
     67 O11         8.6920    1.5260   -3.8200 o         1 MOL     -0.547370
     68 H28         5.7550    0.4890   -1.1470 hn        1 MOL      0.383298
     69 H29         7.0250    3.1870   -0.6090 h1        1 MOL      0.024745
     70 H30         6.6140    3.3890   -3.1740 hc        1 MOL      0.129595
     71 H31         6.1750    1.6710   -3.0840 hc        1 MOL      0.129595
     72 H32         8.7140    2.8710   -1.0340 hn        1 MOL      0.371159
     73 H33        10.0860    2.3450   -1.8790 hn        1 MOL      0.371159
     74 N8          4.7950    4.4040   -1.4330 n         1 MOL     -0.591543
     75 C23         3.5610    5.1420   -1.3280 c3        1 MOL     -0.003563
     76 C24         2.9450    5.0640    0.0570 c         1 MOL      0.521147
     77 O12         3.6460    5.0880    1.0800 o         1 MOL     -0.493242
     78 H34         5.5790    4.9980   -1.6820 hn        1 MOL      0.344617
     79 H35         2.9420    4.6910   -2.1050 h1        1 MOL      0.079300
     80 H36         3.5600    6.1910   -1.6200 h1        1 MOL      0.079300
     81 N9          1.6260    4.9030    0.0930 n         1 MOL     -0.556056
     82 C25         0.8250    4.6320    1.2660 c3        1 MOL      0.236425
     83 C26         0.9420    3.1450    1.7510 c         1 MOL      0.506890
     84 O13         1.7480    2.4510    1.1420 o         1 MOL     -0.418735
     85 C27        -0.6140    5.0070    0.9930 c3        1 MOL     -0.042311
     86 C28        -0.9800    6.4010    0.6060 ca        1 MOL     -0.060338
     87 C29        -1.2190    6.6000   -0.7920 ca        1 MOL     -0.074405
     88 C30        -0.9120    7.4980    1.4830 ca        1 MOL     -0.074405
     89 C31        -1.6530    7.8810   -1.1530 ca        1 MOL     -0.304903
     90 C32        -1.3200    8.8120    1.0440 ca        1 MOL     -0.304903
     91 C33        -1.7310    8.9410   -0.2930 ca        1 MOL      0.392577
     92 O14        -2.0620   10.1690   -0.7740 oh        1 MOL     -0.496764
     93 H37         1.1740    4.9390   -0.8140 hn        1 MOL      0.279449
     94 H38         1.1180    5.2650    2.0980 h1        1 MOL      0.046129
     95 H39        -1.1280    4.7200    1.9100 hc        1 MOL      0.011041
     96 H40        -1.1000    4.3580    0.2630 hc        1 MOL      0.011041
     97 H41        -1.0860    5.8600   -1.5630 ha        1 MOL      0.112594
     98 H42        -0.8210    7.1950    2.5220 ha        1 MOL      0.112594
     99 H43        -1.9220    8.0440   -2.1900 ha        1 MOL      0.162654
    100 H44        -1.3430    9.6380    1.7370 ha        1 MOL      0.162654
    101 H45        -2.3420   10.7350   -0.0490 ho        1 MOL      0.372326
    102 N10         0.2270    2.7400    2.8390 n         1 MOL     -0.690948
    103 C34         0.2740    1.3320    3.3440 c3        1 MOL      0.103804
    104 C35        -0.0080    0.1580    2.3200 c         1 MOL      0.475805
    105 O15         0.8370   -0.2670    1.5520 o         1 MOL     -0.481177
    106 C36         1.5540    1.0930    4.1490 c3        1 MOL      0.116978
    107 C37         1.6030   -0.3180    4.7930 c3        1 MOL     -0.242838
    108 C38         1.7750    2.1430    5.2780 c3        1 MOL     -0.413525
    109 C39         0.4940   -0.6210    5.7460 c3        1 MOL     -0.080369
    110 H46        -0.2740    3.4460    3.3630 hn        1 MOL      0.361231
    111 H47        -0.5020    1.2870    4.1130 h1        1 MOL      0.111406
    112 H48         2.4030    1.3300    3.5090 hc        1 MOL      0.116968
    113 H49         2.5550   -0.4410    5.3100 hc        1 MOL      0.114104
    114 H50         1.4910   -1.0420    3.9920 hc        1 MOL      0.114104
    115 H51         0.8360    2.2270    5.8420 hc        1 MOL      0.113533
    116 H52         2.6610    1.9480    5.8790 hc        1 MOL      0.113533
    117 H53         2.0490    3.0840    4.8080 hc        1 MOL      0.113533
    118 H54         0.5520   -0.0800    6.6940 hc        1 MOL      0.016862
    119 H55        -0.4330   -0.3250    5.2480 hc        1 MOL      0.016862
    120 H56         0.4870   -1.6970    5.8990 hc        1 MOL      0.016862
    121 N11        -1.2040   -0.3790    2.4220 n         1 MOL     -0.361965
    122 C40        -1.4710   -1.7290    1.8920 c3        1 MOL     -0.077999
    123 C41        -2.8130   -1.7300    1.1210 c         1 MOL      0.687929
    124 O16        -2.9650   -2.4310    0.1250 o         1 MOL     -0.578604
    125 C42        -1.4860   -2.7260    3.0840 c3        1 MOL      0.046341
    126 O17        -2.2330   -2.4090    4.2510 oh        1 MOL     -0.640425
    127 H57        -1.9780    0.0170    2.9360 hn        1 MOL      0.239216
    128 H58        -0.7940   -2.0270    1.1020 h1        1 MOL      0.156046
    129 H59        -0.4800   -2.8590    3.4730 h1        1 MOL      0.083293
    130 H60        -1.8070   -3.7200    2.7570 h1        1 MOL      0.083293
    131 H61        -2.2210   -3.0330    4.9840 ho        1 MOL      0.438582
    132 N12        -3.7390   -0.8950    1.5810 n         1 MOL     -0.548323
    133 C43        -4.9550   -0.7390    0.7840 c3        1 MOL      0.032810
    134 C44        -4.6980   -0.0620   -0.5710 c         1 MOL      0.701045
    135 O18        -3.6420    0.5840   -0.6700 o         1 MOL     -0.614156
    136 C45        -5.9740    0.0500    1.6930 c3        1 MOL     -0.192184
    137 H62        -3.6710   -0.3930    2.4520 hn        1 MOL      0.348395
    138 H63        -5.3950   -1.7320    0.6360 h1        1 MOL      0.103826
    139 H64        -6.3110   -0.6260    2.4800 hc        1 MOL      0.070132
    140 H65        -5.4680    0.9340    2.0780 hc        1 MOL      0.070132
    141 H66        -6.7050    0.4360    0.9750 hc        1 MOL      0.070132
    142 N13        -5.6070   -0.2000   -1.5200 n         1 MOL     -0.697608
    143 C46        -6.9120   -0.8950   -1.6230 c3        1 MOL      0.568232
    144 C47        -7.9860   -0.0120   -2.2430 c         1 MOL      0.437609
    145 O19        -7.8790    0.4130   -3.3730 o         1 MOL     -0.504639
    146 C48        -6.6300   -2.0570   -2.4850 c3        1 MOL     -0.240670
    147 H67        -5.3870    0.3820   -2.3190 hn        1 MOL      0.316192
    148 H68        -7.2320   -1.2510   -0.6450 h1        1 MOL     -0.072894
    149 H69        -5.9770   -2.7010   -1.8860 hc        1 MOL      0.057966
    150 H70        -7.6020   -2.5410   -2.5890 hc        1 MOL      0.057966
    151 H71        -6.2310   -1.6860   -3.4270 hc        1 MOL      0.057966
    152 N14        -9.2070    0.1670   -1.6580 n         1 MOL     -0.652855
    153 C49        -9.7780   -0.6260   -0.5750 c3        1 MOL      0.243419
    154 C50        -9.4950    0.0580    0.8060 c         1 MOL      0.315305
    155 O20        -9.1160   -0.5860    1.7850 o         1 MOL     -0.494689
    156 C51       -11.3420   -0.5400   -0.7340 c3        1 MOL     -0.064681
    157 C52       -11.8060   -1.3650   -1.9300 c3        1 MOL     -0.156373
    158 C53       -13.1560   -0.9970   -2.4050 c         1 MOL      0.666470
    159 O21       -13.2800   -0.8800   -3.6590 o         1 MOL     -0.650543
    160 O22       -14.1550   -0.6690   -1.6650 o         1 MOL     -0.650543
    161 H72        -9.8830    0.7380   -2.1500 hn        1 MOL      0.394780
    162 H73        -9.4600   -1.6650   -0.5060 h1        1 MOL      0.030650
    163 H74       -11.7140    0.4560   -0.9840 hc        1 MOL      0.040694
    164 H75       -11.9480   -0.8890    0.0940 hc        1 MOL      0.040694
    165 H76       -11.7910   -2.4300   -1.6820 hc        1 MOL      0.030130
    166 H77       -11.1570   -1.3100   -2.8060 hc        1 MOL      0.030130
    167 N15        -9.8140    1.3590    0.8840 n         1 MOL     -0.260257
    168 C54        -9.3880    2.2030    2.0230 c3        1 MOL     -0.238706
    169 H78        -9.6210    3.2460    1.8080 h1        1 MOL      0.114538
    170 H79        -9.9170    1.8910    2.9240 h1        1 MOL      0.114538
    171 H80        -8.3140    2.0940    2.1750 h1        1 MOL      0.114538
    172 H81       -10.1680    1.8030    0.0450 hn        1 MOL      0.250662
    173 Ca1         2.0660    0.5160   -0.6660 Ca        1 MOL      1.765805
    174 O23         1.6010    1.3590   -3.1920 oh        1 MOL     -0.908827
    175 H82         1.0020    1.5690   -3.9040 ho        1 MOL      0.431782
    176 H83         2.4140    1.1150   -3.6280 ho        1 MOL      0.431782
    177 O24        -0.6050    1.3160   -0.6080 oh        1 MOL     -0.908827
    178 H84        -0.8560    1.7150   -1.4320 ho        1 MOL      0.431782
    179 H85        -1.4290    1.1010   -0.1790 ho        1 MOL      0.431782
    180 O25         0.4370   -1.3220   -1.8920 oh        1 MOL     -0.908827
    181 H86         0.7100   -1.7670   -2.6920 ho        1 MOL      0.431782
    182 H87        -0.4990   -1.1250   -2.0340 ho        1 MOL      0.431782
@<TRIPOS>BOND
     1    1    2 1   
     2    1    4 1   
     3    1    5 1   
     4    1    6 1   
     5    2    3 2   
     6    2    7 1   
     7    7    8 1   
     8    7   15 1   
     9    8    9 1   
    10    8   11 1   
    11    8   16 1   
    12    9   10 2   
    13    9   19 1   
    14   11   12 1   
    15   11   17 1   
    16   11   18 1   
    17   12   13 1   
    18   12   14 1   
    19   19   20 1   
    20   19   28 1   
    21   20   21 1   
    22   20   23 1   
    23   20   29 1   
    24   21   22 2   
    25   21   41 1   
    26   23   24 1   
    27   23   30 1   
    28   23   31 1   
    29   24   25 1   
    30   24   32 1   
    31   24   33 1   
    32   25   26 1   
    33   25   34 1   
    34   25   35 1   
    35   26   27 1   
    36   26   36 1   
    37   26   37 1   
    38   27   38 1   
    39   27   39 1   
    40   27   40 1   
    41   41   42 1   
    42   41   49 1   
    43   42   43 1   
    44   42   45 1   
    45   42   50 1   
    46   43   44 2   
    47   43   53 1   
    48   45   46 1   
    49   45   51 1   
    50   45   52 1   
    51   46   47 1   
    52   46   48 1   
    53   53   54 1   
    54   53   57 1   
    55   54   55 1   
    56   54   58 1   
    57   54   59 1   
    58   55   56 2   
    59   55   60 1   
    60   60   61 1   
    61   60   68 1   
    62   61   62 1   
    63   61   64 1   
    64   61   69 1   
    65   62   63 2   
    66   62   74 1   
    67   64   65 1   
    68   64   70 1   
    69   64   71 1   
    70   65   66 1   
    71   65   67 2   
    72   66   72 1   
    73   66   73 1   
    74   74   75 1   
    75   74   78 1   
    76   75   76 1   
    77   75   79 1   
    78   75   80 1   
    79   76   77 2   
    80   76   81 1   
    81   81   82 1   
    82   81   93 1   
    83   82   83 1   
    84   82   85 1   
    85   82   94 1   
    86   83   84 2   
    87   83  102 1   
    88   85   86 1   
    89   85   95 1   
    90   85   96 1   
    91   86   87 ar  
    92   86   88 ar  
    93   87   89 ar  
    94   87   97 1   
    95   88   90 ar  
    96   88   98 1   
    97   89   91 ar  
    98   89   99 1   
    99   90   91 ar  
   100   90  100 1   
   101   91   92 1   
   102   92  101 1   
   103  102  103 1   
   104  102  110 1   
   105  103  104 1   
   106  103  106 1   
   107  103  111 1   
   108  104  105 2   
   109  104  121 1   
   110  106  107 1   
   111  106  108 1   
   112  106  112 1   
   113  107  109 1   
   114  107  113 1   
   115  107  114 1   
   116  108  115 1   
   117  108  116 1   
   118  108  117 1   
   119  109  118 1   
   120  109  119 1   
   121  109  120 1   
   122  121  122 1   
   123  121  127 1   
   124  122  123 1   
   125  122  125 1   
   126  122  128 1   
   127  123  124 2   
   128  123  132 1   
   129  125  126 1   
   130  125  129 1   
   131  125  130 1   
   132  126  131 1   
   133  132  133 1   
   134  132  137 1   
   135  133  134 1   
   136  133  136 1   
   137  133  138 1   
   138  134  135 2   
   139  134  142 1   
   140  136  139 1   
   141  136  140 1   
   142  136  141 1   
   143  142  143 1   
   144  142  147 1   
   145  143  144 1   
   146  143  146 1   
   147  143  148 1   
   148  144  145 2   
   149  144  152 1   
   150  146  149 1   
   151  146  150 1   
   152  146  151 1   
   153  152  153 1   
   154  152  161 1   
   155  153  154 1   
   156  153  156 1   
   157  153  162 1   
   158  154  155 2   
   159  154  167 1   
   160  156  157 1   
   161  156  163 1   
   162  156  164 1   
   163  157  158 1   
   164  157  165 1   
   165  157  166 1   
   166  158  159 1   
   167  158  160 1   
   168  167  168 1   
   169  167  172 1   
   170  168  169 1   
   171  168  170 1   
   172  168  171 1   
   173  174  175 1   
   174  174  176 1   
   175  177  178 1   
   176  177  179 1   
   177  180  181 1   
   178  180  182 1   
@<TRIPOS>SUBSTRUCTURE
     1 MOL         1 TEMP              0 ****  ****    0 ROOT
