@<TRIPOS>MOLECULE
MOL
  195   189     1     0     0
SMALL
resp


@<TRIPOS>ATOM
      1 C1          5.4240   -5.0750   -0.3270 c3        1 MOL     -0.270141
      2 C2          4.4570   -3.8420   -0.4220 c         1 MOL      0.626270
      3 O1          4.7410   -2.8830   -1.1470 o         1 MOL     -0.627774
      4 H1          4.8410   -5.9960   -0.3560 hc        1 MOL      0.071896
      5 H2          6.1190   -5.0580   -1.1660 hc        1 MOL      0.071896
      6 H3          5.9810   -5.0290    0.6080 hc        1 MOL      0.071896
      7 N1          3.1860   -3.9470    0.0130 n         1 MOL     -0.342010
      8 C3          2.4940   -5.1310    0.5310 c3        1 MOL     -0.133103
      9 C4          1.7920   -5.8770   -0.6510 c         1 MOL      0.457356
     10 O2          1.7640   -7.1320   -0.6530 o         1 MOL     -0.570661
     11 C5          1.5190   -4.7230    1.5780 c3        1 MOL     -0.216086
     12 C6          2.2630   -3.9120    2.5700 c         1 MOL      0.816501
     13 O3          1.9100   -2.7320    2.8400 o         1 MOL     -0.789069
     14 O4          3.2020   -4.3850    3.2320 o         1 MOL     -0.789069
     15 H4          2.6690   -3.0830   -0.1410 hn        1 MOL      0.197827
     16 H5          3.2630   -5.7630    0.9620 h1        1 MOL      0.126437
     17 H6          1.1890   -5.6010    2.1310 hc        1 MOL      0.089204
     18 H7          0.6720   -4.1850    1.1630 hc        1 MOL      0.089204
     19 N2          1.3230   -5.1680   -1.6490 n         1 MOL     -0.044801
     20 C7          0.9020   -5.8010   -2.8700 c3        1 MOL     -0.153729
     21 C8         -0.6010   -5.8770   -3.0710 c         1 MOL      0.375794
     22 O5         -1.1120   -6.8800   -3.6470 o         1 MOL     -0.547837
     23 C9          1.3420   -4.9330   -4.0900 c3        1 MOL      0.092616
     24 C10         0.9210   -3.4280   -3.9940 c3        1 MOL      0.064217
     25 C11         2.8630   -4.9620   -4.3020 c3        1 MOL     -0.154479
     26 C12         1.1250   -2.4630   -5.1620 c3        1 MOL     -0.511941
     27 H8          1.4480   -4.1720   -1.5430 hn        1 MOL      0.100451
     28 H9          1.3190   -6.8050   -2.8750 h1        1 MOL      0.115596
     29 H10         0.9370   -5.4170   -4.9730 hc        1 MOL      0.002932
     30 H11         1.4380   -2.9740   -3.1520 hc        1 MOL      0.075504
     31 H12        -0.1560   -3.3990   -3.8500 hc        1 MOL      0.075504
     32 H13         3.1080   -4.6150   -5.3110 hc        1 MOL      0.027738
     33 H14         3.3440   -4.2400   -3.6480 hc        1 MOL      0.027738
     34 H15         3.3590   -5.9310   -4.2100 hc        1 MOL      0.027738
     35 H16         1.0420   -2.9490   -6.1350 hc        1 MOL      0.121630
     36 H17         0.4180   -1.6360   -5.1180 hc        1 MOL      0.121630
     37 H18         2.1160   -2.0200   -5.0140 hc        1 MOL      0.121630
     38 N3         -1.3980   -4.9500   -2.4660 n         1 MOL      0.007074
     39 C13        -2.8510   -4.9010   -2.5230 c3        1 MOL     -0.013776
     40 C14        -3.4320   -4.5260   -1.0830 c         1 MOL      0.322458
     41 O6         -2.6850   -4.3510   -0.1320 o         1 MOL     -0.478128
     42 C15        -3.2680   -3.8530   -3.5700 c3        1 MOL     -0.099723
     43 C16        -4.7750   -3.7130   -3.9290 c         1 MOL      0.670807
     44 O7         -5.1890   -2.5740   -4.2850 o         1 MOL     -0.677029
     45 O8         -5.5300   -4.6740   -3.8130 o         1 MOL     -0.677029
     46 H19        -0.8790   -4.3220   -1.8690 hn        1 MOL     -0.023170
     47 H20        -3.1660   -5.8590   -2.9580 h1        1 MOL      0.037687
     48 H21        -2.7310   -3.9840   -4.5020 hc        1 MOL      0.010400
     49 H22        -2.9410   -2.8700   -3.2410 hc        1 MOL      0.010400
     50 N4         -4.7740   -4.5120   -0.9760 n         1 MOL     -0.179134
     51 C17        -5.4970   -4.1830    0.2030 c3        1 MOL     -0.075300
     52 C18        -5.7570   -2.7390    0.2970 c         1 MOL      0.670999
     53 O9         -4.8640   -1.8850    0.1250 o         1 MOL     -0.565186
     54 H23        -5.3580   -4.8460   -1.7390 hn        1 MOL      0.210375
     55 H24        -4.8900   -4.4360    1.0770 h1        1 MOL      0.041674
     56 H25        -6.4200   -4.7420    0.3610 h1        1 MOL      0.041674
     57 N5         -7.0510   -2.3680    0.5570 n         1 MOL     -0.610468
     58 C19        -7.5380   -1.0330    0.4300 c3        1 MOL      0.389243
     59 C20        -7.6740   -0.5120   -1.0270 c         1 MOL      0.410562
     60 O10        -7.7440   -1.3800   -1.9350 o         1 MOL     -0.490504
     61 C21        -8.8700   -0.8750    1.2320 c3        1 MOL     -0.444711
     62 C22        -8.7200   -1.3040    2.6800 c         1 MOL      0.799086
     63 O11        -8.3210   -0.3580    3.3870 o         1 MOL     -0.731809
     64 O12        -8.9810   -2.4620    3.1360 o         1 MOL     -0.731809
     65 H26        -7.6880   -3.1360    0.7150 hn        1 MOL      0.295739
     66 H27        -6.7150   -0.4670    0.8730 h1        1 MOL      0.014353
     67 H28        -9.5650   -1.5320    0.7090 hc        1 MOL      0.062867
     68 H29        -9.3040    0.1170    1.0950 hc        1 MOL      0.062867
     69 N6         -7.6730    0.8050   -1.2390 n         1 MOL     -0.460683
     70 C23        -7.3780    1.9320   -0.3340 c3        1 MOL      0.039564
     71 C24        -7.4120    3.2670   -1.0460 c         1 MOL      0.628232
     72 O13        -8.0900    3.2610   -2.0850 o         1 MOL     -0.577950
     73 H30        -7.8860    1.0410   -2.1970 hn        1 MOL      0.290825
     74 H31        -6.4360    1.7310    0.1740 h1        1 MOL      0.092070
     75 H32        -8.1700    1.9100    0.4180 h1        1 MOL      0.092070
     76 N7         -6.9280    4.3660   -0.5550 n         1 MOL     -0.635274
     77 C25        -6.2850    4.5970    0.7590 c3        1 MOL      0.231506
     78 C26        -5.0490    3.7280    1.0560 c         1 MOL      0.457891
     79 O14        -5.0690    2.9000    1.9330 o         1 MOL     -0.458391
     80 C27        -7.4270    4.6750    1.8370 c3        1 MOL     -0.248290
     81 C28        -7.1700    5.2460    3.2030 c3        1 MOL     -0.163895
     82 C29        -6.6550    4.1170    4.0880 c         1 MOL      0.548454
     83 N8         -5.7050    4.4050    4.9120 n         1 MOL     -0.739229
     84 O15        -7.2550    3.0270    4.2230 o         1 MOL     -0.451609
     85 H33        -7.0540    5.2020   -1.1090 hn        1 MOL      0.323067
     86 H34        -5.9670    5.6330    0.7420 h1        1 MOL      0.021782
     87 H35        -7.8990    3.6880    1.8570 hc        1 MOL      0.109160
     88 H36        -8.0860    5.3900    1.3440 hc        1 MOL      0.109160
     89 H37        -8.0840    5.6090    3.6690 hc        1 MOL      0.052538
     90 H38        -6.4430    6.0480    3.1400 hc        1 MOL      0.052538
     91 H39        -5.2460    5.3110    4.8970 hn        1 MOL      0.345533
     92 H40        -5.4200    3.6950    5.5610 hn        1 MOL      0.345533
     93 N9         -3.9400    3.8910    0.3660 n         1 MOL     -0.513406
     94 C30        -2.6320    3.2520    0.6840 c3        1 MOL      0.016366
     95 C31        -2.0750    2.3590   -0.4810 c         1 MOL      0.756746
     96 O16        -2.1290    2.7870   -1.6530 o         1 MOL     -0.600444
     97 C32        -1.5940    4.2590    0.9230 c3        1 MOL      0.375162
     98 C33        -2.0260    5.0560    2.1820 c3        1 MOL     -0.362770
     99 C34        -1.3330    5.3750   -0.2380 c3        1 MOL     -0.362770
    100 H41        -3.9020    4.6140   -0.3360 hn        1 MOL      0.270304
    101 H42        -2.6950    2.6510    1.5920 h1        1 MOL      0.070537
    102 H43        -0.6460    3.7660    1.1610 hc        1 MOL     -0.017251
    103 H44        -1.1510    5.4850    2.6730 hc        1 MOL      0.077828
    104 H45        -2.6670    5.8660    1.8180 hc        1 MOL      0.077828
    105 H46        -2.5650    4.3970    2.8730 hc        1 MOL      0.077828
    106 H47        -0.5020    5.9960    0.0910 hc        1 MOL      0.077828
    107 H48        -1.0480    4.9000   -1.1780 hc        1 MOL      0.077828
    108 H49        -2.1680    6.0710   -0.3490 hc        1 MOL      0.077828
    109 N10        -1.4680    1.2220   -0.2380 n         1 MOL     -0.612628
    110 C35        -1.0620    0.3290   -1.2910 c3        1 MOL      0.007428
    111 C36         0.2190    0.6710   -2.0970 c         1 MOL      0.455992
    112 O17         0.7220   -0.1830   -2.8210 o         1 MOL     -0.536157
    113 C37        -1.1140   -1.0910   -0.8210 c3        1 MOL      0.108292
    114 C38         0.1230   -1.4830   -0.0320 c         1 MOL      0.414570
    115 N11         0.4470   -0.9810    1.1540 n         1 MOL     -0.815345
    116 O18         0.8190   -2.3140   -0.5860 o         1 MOL     -0.315129
    117 H50        -1.1230    1.1470    0.7150 hn        1 MOL      0.210719
    118 H51        -1.8270    0.3500   -2.0690 h1        1 MOL      0.139181
    119 H52        -1.1580   -1.6410   -1.7650 hc        1 MOL      0.044128
    120 H53        -2.0110   -1.4350   -0.3140 hc        1 MOL      0.044128
    121 H54        -0.1870   -0.3770    1.6630 hn        1 MOL      0.418107
    122 H55         1.2890   -1.3280    1.5800 hn        1 MOL      0.418107
    123 N12         0.7970    1.8410   -1.9290 n         1 MOL     -0.258135
    124 C39         2.1530    2.2430   -2.4500 c3        1 MOL      0.072660
    125 C40         3.0060    2.9880   -1.4450 c         1 MOL      0.392878
    126 O19         2.4960    3.5470   -0.4840 o         1 MOL     -0.538157
    127 C41         2.0590    3.0740   -3.7080 c3        1 MOL      0.041065
    128 C42         1.9070    4.5530   -3.5320 ca        1 MOL      0.155058
    129 C43         3.0420    5.3850   -3.4160 ca        1 MOL     -0.334544
    130 C44         0.6060    5.0710   -3.3250 ca        1 MOL     -0.334544
    131 C45         2.9140    6.6670   -2.8570 ca        1 MOL     -0.025671
    132 C46         0.4940    6.4350   -2.9540 ca        1 MOL     -0.025671
    133 C47         1.5850    7.1720   -2.7350 ca        1 MOL      0.126705
    134 O20         1.4410    8.5200   -2.3420 oh        1 MOL     -0.444424
    135 H56         0.4020    2.5720   -1.3570 hn        1 MOL      0.184477
    136 H57         2.6910    1.3180   -2.6380 h1        1 MOL      0.055833
    137 H58         1.2420    2.7020   -4.3370 hc        1 MOL     -0.013366
    138 H59         2.9830    2.9440   -4.2770 hc        1 MOL     -0.013366
    139 H60         4.0190    4.9290   -3.4530 ha        1 MOL      0.167179
    140 H61        -0.2790    4.4580   -3.4810 ha        1 MOL      0.167179
    141 H62         3.7650    7.2750   -2.5830 ha        1 MOL      0.099521
    142 H63        -0.5220    6.8070   -2.9360 ha        1 MOL      0.099521
    143 H64         0.5010    8.6620   -2.2760 ho        1 MOL      0.308411
    144 N13         4.2960    3.0840   -1.6150 n         1 MOL      0.006568
    145 C48         5.2290    3.5960   -0.6590 c3        1 MOL     -0.307134
    146 C49         6.3860    2.6160   -0.6420 c         1 MOL      0.426371
    147 O21         7.5520    2.9540   -0.9800 o         1 MOL     -0.508718
    148 C50         5.6020    5.0630   -0.8690 c3        1 MOL      0.139173
    149 C51         6.6220    5.5200    0.2640 c3        1 MOL     -0.356936
    150 C52         6.7830    7.0280    0.4910 c         1 MOL      0.723403
    151 O22         7.4690    7.3840    1.4480 o         1 MOL     -0.736441
    152 O23         6.2540    7.8260   -0.3260 o         1 MOL     -0.736441
    153 H65         4.6180    2.8250   -2.5310 hn        1 MOL      0.141747
    154 H66         4.6940    3.5490    0.2920 h1        1 MOL      0.135040
    155 H67         4.6880    5.5980   -0.6560 hc        1 MOL      0.028191
    156 H68         5.8720    5.2970   -1.9040 hc        1 MOL      0.028191
    157 H69         7.6460    5.2220    0.0290 hc        1 MOL      0.090082
    158 H70         6.3050    5.0180    1.1860 hc        1 MOL      0.090082
    159 N14         6.1040    1.4220   -0.1810 n         1 MOL     -0.258075
    160 C53         6.9730    0.2380   -0.3230 c3        1 MOL     -0.002427
    161 C54         7.0840   -0.2290   -1.7570 c         1 MOL      0.319708
    162 O24         8.1490   -0.5970   -2.1960 o         1 MOL     -0.538041
    163 C55         6.5280   -0.8530    0.5670 c3        1 MOL      0.027124
    164 C56         6.5800   -0.4450    2.0100 c3        1 MOL     -0.036205
    165 C57         5.6490   -1.1860    2.9730 c         1 MOL      0.641284
    166 O25         6.1350   -1.9570    3.8680 o         1 MOL     -0.714681
    167 O26         4.4230   -1.0040    2.8960 o         1 MOL     -0.714681
    168 H71         5.1480    1.1980    0.0700 hn        1 MOL      0.186307
    169 H72         7.9780    0.5490   -0.0440 h1        1 MOL      0.088299
    170 H73         7.1530   -1.7460    0.4670 hc        1 MOL      0.036299
    171 H74         5.4930   -1.1030    0.3210 hc        1 MOL      0.036299
    172 H75         6.5510    0.6220    2.2100 hc        1 MOL     -0.012250
    173 H76         7.5860   -0.7640    2.2900 hc        1 MOL     -0.012250
    174 N15         6.0300   -0.1620   -2.5090 n         1 MOL      0.067276
    175 C58         5.9780   -0.3360   -3.9980 c3        1 MOL     -0.291369
    176 H77         6.6990    0.3330   -4.4670 h1        1 MOL      0.102108
    177 H78         6.2200   -1.3680   -4.2530 h1        1 MOL      0.102108
    178 H79         4.9760   -0.0980   -4.3570 h1        1 MOL      0.102108
    179 H80         5.1940    0.2540   -2.1200 hn        1 MOL      0.090416
    180 Ca1         3.4640   -2.2780    4.9210 Ca        1 MOL      1.760550
    181 O27         4.5250    0.0940    5.9030 oh        1 MOL     -0.815613
    182 H81         4.0670    0.6480    6.5430 ho        1 MOL      0.388794
    183 H82         5.4380    0.0940    6.1890 ho        1 MOL      0.388794
    184 O28         5.5930   -3.6210    6.2450 oh        1 MOL     -0.815613
    185 H83         6.0460   -3.6630    7.0870 ho        1 MOL      0.388794
    186 H84         6.1480   -4.1200    5.6410 ho        1 MOL      0.388794
    187 O29         1.6000   -0.4950    5.2450 oh        1 MOL     -0.815613
    188 H85         1.3680    0.3990    4.9680 ho        1 MOL      0.388794
    189 H86         0.7730   -0.8560    5.5680 ho        1 MOL      0.388794
    190 O30         1.6580   -4.1490    6.0250 oh        1 MOL     -0.815613
    191 H87         1.8550   -4.4380    6.9170 ho        1 MOL      0.388794
    192 H88         0.8030   -4.5400    5.8400 ho        1 MOL      0.388794
    193 O31         3.1470   -2.2270    7.6000 oh        1 MOL     -0.815613
    194 H89         3.3200   -2.6970    8.4210 ho        1 MOL      0.388794
    195 H90         2.5370   -1.5380    7.8410 ho        1 MOL      0.388794
@<TRIPOS>BOND
     1    1    2 1   
     2    1    4 1   
     3    1    5 1   
     4    1    6 1   
     5    2    3 2   
     6    2    7 1   
     7    7    8 1   
     8    7   15 1   
     9    8    9 1   
    10    8   11 1   
    11    8   16 1   
    12    9   10 2   
    13    9   19 1   
    14   11   12 1   
    15   11   17 1   
    16   11   18 1   
    17   12   13 1   
    18   12   14 1   
    19   19   20 1   
    20   19   27 1   
    21   20   21 1   
    22   20   23 1   
    23   20   28 1   
    24   21   22 2   
    25   21   38 1   
    26   23   24 1   
    27   23   25 1   
    28   23   29 1   
    29   24   26 1   
    30   24   30 1   
    31   24   31 1   
    32   25   32 1   
    33   25   33 1   
    34   25   34 1   
    35   26   35 1   
    36   26   36 1   
    37   26   37 1   
    38   38   39 1   
    39   38   46 1   
    40   39   40 1   
    41   39   42 1   
    42   39   47 1   
    43   40   41 2   
    44   40   50 1   
    45   42   43 1   
    46   42   48 1   
    47   42   49 1   
    48   43   44 1   
    49   43   45 1   
    50   50   51 1   
    51   50   54 1   
    52   51   52 1   
    53   51   55 1   
    54   51   56 1   
    55   52   53 2   
    56   52   57 1   
    57   57   58 1   
    58   57   65 1   
    59   58   59 1   
    60   58   61 1   
    61   58   66 1   
    62   59   60 2   
    63   59   69 1   
    64   61   62 1   
    65   61   67 1   
    66   61   68 1   
    67   62   63 1   
    68   62   64 1   
    69   69   70 1   
    70   69   73 1   
    71   70   71 1   
    72   70   74 1   
    73   70   75 1   
    74   71   72 2   
    75   71   76 1   
    76   76   77 1   
    77   76   85 1   
    78   77   78 1   
    79   77   80 1   
    80   77   86 1   
    81   78   79 2   
    82   78   93 1   
    83   80   81 1   
    84   80   87 1   
    85   80   88 1   
    86   81   82 1   
    87   81   89 1   
    88   81   90 1   
    89   82   83 1   
    90   82   84 2   
    91   83   91 1   
    92   83   92 1   
    93   93   94 1   
    94   93  100 1   
    95   94   95 1   
    96   94   97 1   
    97   94  101 1   
    98   95   96 2   
    99   95  109 1   
   100   97   98 1   
   101   97   99 1   
   102   97  102 1   
   103   98  103 1   
   104   98  104 1   
   105   98  105 1   
   106   99  106 1   
   107   99  107 1   
   108   99  108 1   
   109  109  110 1   
   110  109  117 1   
   111  110  111 1   
   112  110  113 1   
   113  110  118 1   
   114  111  112 2   
   115  111  123 1   
   116  113  114 1   
   117  113  119 1   
   118  113  120 1   
   119  114  115 1   
   120  114  116 2   
   121  115  121 1   
   122  115  122 1   
   123  123  124 1   
   124  123  135 1   
   125  124  125 1   
   126  124  127 1   
   127  124  136 1   
   128  125  126 2   
   129  125  144 1   
   130  127  128 1   
   131  127  137 1   
   132  127  138 1   
   133  128  129 ar  
   134  128  130 ar  
   135  129  131 ar  
   136  129  139 1   
   137  130  132 ar  
   138  130  140 1   
   139  131  133 ar  
   140  131  141 1   
   141  132  133 ar  
   142  132  142 1   
   143  133  134 1   
   144  134  143 1   
   145  144  145 1   
   146  144  153 1   
   147  145  146 1   
   148  145  148 1   
   149  145  154 1   
   150  146  147 2   
   151  146  159 1   
   152  148  149 1   
   153  148  155 1   
   154  148  156 1   
   155  149  150 1   
   156  149  157 1   
   157  149  158 1   
   158  150  151 1   
   159  150  152 1   
   160  159  160 1   
   161  159  168 1   
   162  160  161 1   
   163  160  163 1   
   164  160  169 1   
   165  161  162 2   
   166  161  174 1   
   167  163  164 1   
   168  163  170 1   
   169  163  171 1   
   170  164  165 1   
   171  164  172 1   
   172  164  173 1   
   173  165  166 1   
   174  165  167 1   
   175  174  175 1   
   176  174  179 1   
   177  175  176 1   
   178  175  177 1   
   179  175  178 1   
   180  181  182 1   
   181  181  183 1   
   182  184  185 1   
   183  184  186 1   
   184  187  188 1   
   185  187  189 1   
   186  190  191 1   
   187  190  192 1   
   188  193  194 1   
   189  193  195 1   
@<TRIPOS>SUBSTRUCTURE
     1 MOL         1 TEMP              0 ****  ****    0 ROOT
