@<TRIPOS>MOLECULE
MOL
  198   191     1     0     0
SMALL
resp


@<TRIPOS>ATOM
      1 C1          3.8960   -2.4030   -3.9260 c3        1 MOL     -0.650810
      2 C2          3.4810   -2.4480   -2.5030 c         1 MOL      0.784945
      3 O1          3.0270   -1.4060   -1.9810 o         1 MOL     -0.510502
      4 H1          3.1960   -1.7840   -4.4880 hc        1 MOL      0.172975
      5 H2          4.8970   -1.9780   -3.9990 hc        1 MOL      0.172975
      6 H3          3.8980   -3.4130   -4.3360 hc        1 MOL      0.172975
      7 N1          3.6420   -3.5120   -1.7100 n         1 MOL     -0.672438
      8 C3          3.1310   -3.6340   -0.3570 c3        1 MOL      0.079640
      9 C4          1.5830   -3.9090   -0.1600 c         1 MOL      0.566745
     10 O2          1.0540   -3.8510    0.9450 o         1 MOL     -0.547252
     11 C5          3.8750   -2.8230    0.7540 c3        1 MOL     -0.184964
     12 C6          5.3760   -2.8170    0.5010 c         1 MOL      0.918892
     13 O3          6.0290   -3.8600    0.6960 o         1 MOL     -0.844776
     14 O4          6.0530   -1.7550    0.2670 o         1 MOL     -0.844776
     15 H4          3.9990   -4.3720   -2.1110 hn        1 MOL      0.323609
     16 H5          3.5020   -4.6290   -0.1230 h1        1 MOL      0.077580
     17 H6          3.6710   -3.2710    1.7290 hc        1 MOL      0.067453
     18 H7          3.5480   -1.7820    0.7710 hc        1 MOL      0.067453
     19 N2          0.8970   -4.2030   -1.2700 n         1 MOL     -0.524864
     20 C7         -0.5590   -4.4770   -1.2960 c3        1 MOL      0.017881
     21 C8         -1.2180   -5.4740   -0.2470 c         1 MOL      0.761855
     22 O5         -0.7060   -6.5440    0.0200 o         1 MOL     -0.595456
     23 C9         -1.0910   -4.7600   -2.7000 c3        1 MOL      0.055308
     24 C10        -1.2200   -6.2040   -3.2740 c3        1 MOL      0.041244
     25 C11        -0.4490   -3.8090   -3.7330 c3        1 MOL     -0.307645
     26 C12         0.1820   -6.8260   -3.4000 c3        1 MOL     -0.015918
     27 H8          1.4480   -4.1290   -2.1090 hn        1 MOL      0.287645
     28 H9         -0.9860   -3.4960   -1.1300 h1        1 MOL      0.108170
     29 H10        -2.1460   -4.4700   -2.6460 hc        1 MOL      0.057119
     30 H11        -1.5270   -6.1670   -4.3220 hc        1 MOL      0.009796
     31 H12        -2.0080   -6.8070   -2.8240 hc        1 MOL      0.009796
     32 H13        -0.6180   -2.8280   -3.2890 hc        1 MOL      0.077635
     33 H14         0.6230   -4.0270   -3.8350 hc        1 MOL      0.077635
     34 H15        -0.8790   -4.0120   -4.7160 hc        1 MOL      0.077635
     35 H16         0.7780   -6.0980   -3.9500 hc        1 MOL     -0.022270
     36 H17         0.6760   -7.0390   -2.4570 hc        1 MOL     -0.022270
     37 H18         0.0430   -7.7510   -3.9650 hc        1 MOL     -0.022270
     38 N3         -2.4120   -5.2620    0.3440 n         1 MOL     -0.726049
     39 C13        -3.3810   -4.2240    0.0720 c3        1 MOL     -0.002216
     40 C14        -3.7710   -3.2660    1.2530 c         1 MOL      0.464342
     41 O6         -4.1100   -2.1440    0.9580 o         1 MOL     -0.484642
     42 C15        -4.7070   -4.8200   -0.5900 c3        1 MOL     -0.024304
     43 C16        -5.3690   -5.9820    0.1540 c         1 MOL      0.739414
     44 O7         -6.4250   -6.3720   -0.3370 o         1 MOL     -0.725231
     45 O8         -4.8810   -6.4650    1.1690 o         1 MOL     -0.725231
     46 H19        -2.6430   -6.0310    0.9590 hn        1 MOL      0.356782
     47 H20        -3.0490   -3.5280   -0.6990 h1        1 MOL      0.037440
     48 H21        -4.3550   -5.0160   -1.6050 hc        1 MOL     -0.025732
     49 H22        -5.5070   -4.1050   -0.7520 hc        1 MOL     -0.025732
     50 N4         -3.5990   -3.7390    2.4780 n         1 MOL     -0.226705
     51 C17        -3.8990   -3.0790    3.7040 c3        1 MOL     -0.361488
     52 C18        -5.3170   -2.5570    3.7070 c         1 MOL      0.553685
     53 O9         -6.2740   -3.3100    3.4950 o         1 MOL     -0.511414
     54 H23        -3.3890   -4.7250    2.5410 hn        1 MOL      0.302754
     55 H24        -3.2800   -2.1820    3.7550 h1        1 MOL      0.144707
     56 H25        -3.7000   -3.7840    4.5120 h1        1 MOL      0.144707
     57 N5         -5.5430   -1.2540    3.9480 n         1 MOL     -0.364359
     58 C19        -6.8340   -0.6040    3.8320 c3        1 MOL     -0.049775
     59 C20        -7.6650   -0.8590    2.5100 c         1 MOL      0.364030
     60 O10        -8.8900   -0.7810    2.5210 o         1 MOL     -0.564506
     61 C21        -6.5560    0.8980    3.9780 c3        1 MOL     -0.180849
     62 C22        -5.4210    1.4280    3.0310 c         1 MOL      0.652456
     63 O11        -5.5960    1.6610    1.7750 o         1 MOL     -0.639497
     64 O12        -4.3460    1.6360    3.5680 o         1 MOL     -0.639497
     65 H26        -4.7500   -0.7000    4.2110 hn        1 MOL      0.249023
     66 H27        -7.4410   -0.9090    4.6740 h1        1 MOL      0.088776
     67 H28        -6.1670    1.1890    4.9630 hc        1 MOL      0.035630
     68 H29        -7.4370    1.4850    3.7530 hc        1 MOL      0.035630
     69 N6         -7.0600   -1.1660    1.4050 n         1 MOL      0.016301
     70 C23        -7.5180   -1.3570    0.0390 c3        1 MOL     -0.288242
     71 C24        -8.0110   -0.0840   -0.6250 c         1 MOL      0.613872
     72 O13        -8.8640   -0.1620   -1.4590 o         1 MOL     -0.610866
     73 H30        -6.0500   -1.2640    1.4420 hn        1 MOL      0.171986
     74 H31        -8.3210   -2.0880   -0.0640 h1        1 MOL      0.127182
     75 H32        -6.6220   -1.5650   -0.5570 h1        1 MOL      0.127182
     76 N7         -7.5750    1.0690   -0.0930 n         1 MOL      0.000139
     77 C25        -7.8860    2.4600   -0.4860 c3        1 MOL      0.067079
     78 C26        -7.3610    2.6750   -1.9410 c         1 MOL      0.462995
     79 O14        -7.7370    3.6340   -2.6160 o         1 MOL     -0.521418
     80 C27        -9.3570    2.8850   -0.2270 c3        1 MOL     -0.175136
     81 C28        -9.8620    2.5530    1.2590 c3        1 MOL      0.020585
     82 C29       -11.0610    3.3890    1.6450 c         1 MOL      0.619288
     83 N8        -11.4100    3.2590    2.9080 n         1 MOL     -0.809523
     84 O15       -11.5650    4.2540    0.9180 o         1 MOL     -0.584058
     85 H33        -6.8830    0.9710    0.6260 hn        1 MOL     -0.049564
     86 H34        -7.2980    3.0630    0.2070 h1        1 MOL      0.068556
     87 H35        -9.9650    2.3350   -0.9350 hc        1 MOL      0.052414
     88 H36        -9.4300    3.9590   -0.4090 hc        1 MOL      0.052414
     89 H37        -9.1140    2.7900    2.0140 hc        1 MOL      0.026974
     90 H38       -10.0790    1.4830    1.2900 hc        1 MOL      0.026974
     91 H39       -10.7780    2.7900    3.5530 hn        1 MOL      0.354788
     92 H40       -12.2020    3.8230    3.1470 hn        1 MOL      0.354788
     93 N9         -6.2330    1.9720   -2.3590 n         1 MOL     -0.409494
     94 C30        -5.6500    2.0310   -3.6710 c3        1 MOL      0.018224
     95 C31        -4.1300    2.2000   -3.6520 c         1 MOL      0.690964
     96 O16        -3.5270    2.4960   -4.7060 o         1 MOL     -0.607822
     97 C32        -6.0810    0.7660   -4.4120 c3        1 MOL      0.262363
     98 C33        -5.4410   -0.5580   -3.9400 c3        1 MOL     -0.298361
     99 C34        -7.6050    0.5770   -4.5850 c3        1 MOL     -0.298361
    100 H41        -5.7390    1.4220   -1.6770 hn        1 MOL      0.200519
    101 H42        -5.9160    2.9650   -4.1680 h1        1 MOL      0.060104
    102 H43        -5.6610    1.1160   -5.3570 hc        1 MOL     -0.059467
    103 H44        -4.3580   -0.4630   -3.9100 hc        1 MOL      0.067517
    104 H45        -5.9740   -0.8980   -3.0430 hc        1 MOL      0.067517
    105 H46        -5.5100   -1.3090   -4.7260 hc        1 MOL      0.067517
    106 H47        -8.1330    1.5120   -4.3870 hc        1 MOL      0.067517
    107 H48        -7.8090    0.2910   -5.6130 hc        1 MOL      0.067517
    108 H49        -7.9810   -0.1800   -3.8910 hc        1 MOL      0.067517
    109 N10        -3.4930    1.8470   -2.5570 n         1 MOL     -0.702702
    110 C35        -1.9900    1.7570   -2.4810 c3        1 MOL      0.308715
    111 C36        -1.4590    2.2990   -1.1460 c         1 MOL      0.620613
    112 O17        -2.1760    2.6510   -0.2140 o         1 MOL     -0.542620
    113 C37        -1.7880    0.1910   -2.6960 c3        1 MOL     -0.227899
    114 C38        -0.3080   -0.0240   -2.8250 c         1 MOL      0.488704
    115 N11         0.2710   -0.6920   -1.8200 n         1 MOL     -0.604651
    116 O18         0.3890    0.4870   -3.6810 o         1 MOL     -0.548292
    117 H50        -3.9170    1.4120   -1.7510 hn        1 MOL      0.356412
    118 H51        -1.4990    2.3720   -3.2300 h1        1 MOL      0.064605
    119 H52        -2.2050   -0.1080   -3.6520 hc        1 MOL      0.078690
    120 H53        -2.1900   -0.3900   -1.8660 hc        1 MOL      0.078690
    121 H54        -0.2330   -0.9650   -0.9910 hn        1 MOL      0.311682
    122 H55         1.2850   -0.6900   -1.8200 hn        1 MOL      0.311682
    123 N12        -0.1110    2.3990   -1.0650 n         1 MOL     -0.796133
    124 C39         0.6380    2.9030    0.0460 c3        1 MOL      0.602450
    125 C40         1.9670    3.4340   -0.5120 c         1 MOL      0.491761
    126 O19         2.3810    3.0500   -1.6280 o         1 MOL     -0.528866
    127 C41         0.9230    1.7470    0.9980 c3        1 MOL     -0.254950
    128 C42         1.3260    2.1400    2.4030 ca        1 MOL      0.103844
    129 C43         2.5880    1.7010    2.8870 ca        1 MOL     -0.189877
    130 C44         0.3800    2.8150    3.2020 ca        1 MOL     -0.189877
    131 C45         2.9970    2.3190    4.1420 ca        1 MOL     -0.227525
    132 C46         0.7890    3.2520    4.4910 ca        1 MOL     -0.227525
    133 C47         2.1170    3.0260    4.9640 ca        1 MOL      0.291730
    134 O20         2.5950    3.4600    6.1500 oh        1 MOL     -0.483517
    135 H56         0.3870    2.2030   -1.9110 hn        1 MOL      0.330446
    136 H57         0.1470    3.7560    0.5180 h1        1 MOL     -0.008835
    137 H58         1.6410    1.0800    0.5190 hc        1 MOL      0.082305
    138 H59         0.0760    1.0920    1.1690 hc        1 MOL      0.082305
    139 H60         3.2080    1.0620    2.2710 ha        1 MOL      0.166364
    140 H61        -0.5120    3.1670    2.7140 ha        1 MOL      0.166364
    141 H62         4.0240    2.2300    4.4530 ha        1 MOL      0.142242
    142 H63         0.1510    3.9910    4.9540 ha        1 MOL      0.142242
    143 H64         3.5520    3.3740    6.1030 ho        1 MOL      0.344443
    144 N13         2.7570    4.2500    0.2400 n         1 MOL     -0.969562
    145 C48         3.9690    4.9010   -0.2530 c3        1 MOL      0.758923
    146 C49         5.0640    4.8640    0.9120 c         1 MOL      0.434172
    147 O21         4.9610    5.5630    1.9270 o         1 MOL     -0.561741
    148 C50         3.6400    6.3680   -0.5290 c3        1 MOL     -0.026069
    149 C51         4.6960    7.2200   -1.0750 c3        1 MOL     -0.306083
    150 C52         4.2370    8.6930   -1.3880 c         1 MOL      0.703107
    151 O22         3.4710    9.3260   -0.6000 o         1 MOL     -0.661184
    152 O23         4.5520    9.2710   -2.4490 o         1 MOL     -0.661184
    153 H65         2.4540    4.5190    1.1640 hn        1 MOL      0.353515
    154 H66         4.4110    4.4440   -1.1480 h1        1 MOL     -0.119593
    155 H67         3.2360    6.7820    0.3950 hc        1 MOL      0.022252
    156 H68         2.8890    6.3830   -1.3180 hc        1 MOL      0.022252
    157 H69         5.0820    6.8300   -2.0200 hc        1 MOL      0.045846
    158 H70         5.5490    7.0960   -0.4120 hc        1 MOL      0.045846
    159 N14         6.0980    4.0760    0.8240 n         1 MOL     -0.436374
    160 C53         6.2980    2.8950    0.0610 c3        1 MOL     -0.044313
    161 C54         6.6600    3.3210   -1.3950 c         1 MOL      0.273986
    162 O24         7.4920    4.2010   -1.5720 o         1 MOL     -0.502337
    163 C55         7.3510    1.8990    0.5710 c3        1 MOL      0.011568
    164 C56         6.7620    1.1940    1.7840 c3        1 MOL     -0.077706
    165 C57         7.5720   -0.0010    2.2510 c         1 MOL      0.554943
    166 O25         8.5790   -0.4000    1.5360 o         1 MOL     -0.620121
    167 O26         7.1920   -0.6060    3.3130 o         1 MOL     -0.620121
    168 H71         6.6940    4.1340    1.6360 hn        1 MOL      0.315046
    169 H72         5.3290    2.4060   -0.0960 h1        1 MOL      0.125497
    170 H73         8.3060    2.3330    0.8470 hc        1 MOL      0.045204
    171 H74         7.4800    1.2050   -0.2580 hc        1 MOL      0.045204
    172 H75         5.7660    0.8750    1.4790 hc        1 MOL      0.007047
    173 H76         6.4980    1.9040    2.5690 hc        1 MOL      0.007047
    174 N15         6.0330    2.7400   -2.4270 n         1 MOL     -0.081132
    175 C58         6.3720    3.0090   -3.8780 c3        1 MOL     -0.058443
    176 H77         5.5590    3.5650   -4.3430 h1        1 MOL      0.055993
    177 H78         7.2900    3.5930   -3.9350 h1        1 MOL      0.055993
    178 H79         6.5110    2.0630   -4.4000 h1        1 MOL      0.055993
    179 H80         5.3140    2.0720   -2.1830 hn        1 MOL      0.173980
    180 Ca1         8.5480   -2.7370    0.5280 Ca        1 MOL      1.699301
    181 O27        10.7470   -2.1620    2.0430 oh        1 MOL     -0.760832
    182 H81        11.5790   -2.3040    1.6030 ho        1 MOL      0.355320
    183 H82        10.7890   -2.7310    2.8130 ho        1 MOL      0.355320
    184 O28         7.9540   -3.2720    3.0930 oh        1 MOL     -0.760832
    185 H83         7.8190   -2.3420    3.2960 ho        1 MOL      0.355320
    186 H84         7.1630   -3.7010    3.4400 ho        1 MOL      0.355320
    187 O29        10.8030   -0.9040   -0.3960 oh        1 MOL     -0.760832
    188 H85        10.9240   -0.4440    0.4350 ho        1 MOL      0.355320
    189 H86        11.6680   -0.9410   -0.7830 ho        1 MOL      0.355320
    190 O30         9.5830   -5.1240    1.4330 oh        1 MOL     -0.760832
    191 H87         9.3350   -5.3370    2.3380 ho        1 MOL      0.355320
    192 H88        10.2930   -5.7360    1.2390 ho        1 MOL      0.355320
    193 O31         8.1890   -1.3790   -1.7590 oh        1 MOL     -0.760832
    194 H89         8.0960   -0.4270   -1.6980 ho        1 MOL      0.355320
    195 H90         7.8710   -1.5930   -2.6350 ho        1 MOL      0.355320
    196 O32        10.8720   -4.0360   -0.6560 oh        1 MOL     -0.760832
    197 H91        11.4140   -3.7180   -1.3840 ho        1 MOL      0.355320
    198 H92        11.3420   -4.8040   -0.3320 ho        1 MOL      0.355320
@<TRIPOS>BOND
     1    1    2 1   
     2    1    4 1   
     3    1    5 1   
     4    1    6 1   
     5    2    3 2   
     6    2    7 1   
     7    7    8 1   
     8    7   15 1   
     9    8    9 1   
    10    8   11 1   
    11    8   16 1   
    12    9   10 2   
    13    9   19 1   
    14   11   12 1   
    15   11   17 1   
    16   11   18 1   
    17   12   13 1   
    18   12   14 1   
    19   19   20 1   
    20   19   27 1   
    21   20   21 1   
    22   20   23 1   
    23   20   28 1   
    24   21   22 2   
    25   21   38 1   
    26   23   24 1   
    27   23   25 1   
    28   23   29 1   
    29   24   26 1   
    30   24   30 1   
    31   24   31 1   
    32   25   32 1   
    33   25   33 1   
    34   25   34 1   
    35   26   35 1   
    36   26   36 1   
    37   26   37 1   
    38   38   39 1   
    39   38   46 1   
    40   39   40 1   
    41   39   42 1   
    42   39   47 1   
    43   40   41 2   
    44   40   50 1   
    45   42   43 1   
    46   42   48 1   
    47   42   49 1   
    48   43   44 1   
    49   43   45 1   
    50   50   51 1   
    51   50   54 1   
    52   51   52 1   
    53   51   55 1   
    54   51   56 1   
    55   52   53 2   
    56   52   57 1   
    57   57   58 1   
    58   57   65 1   
    59   58   59 1   
    60   58   61 1   
    61   58   66 1   
    62   59   60 2   
    63   59   69 1   
    64   61   62 1   
    65   61   67 1   
    66   61   68 1   
    67   62   63 1   
    68   62   64 1   
    69   69   70 1   
    70   69   73 1   
    71   70   71 1   
    72   70   74 1   
    73   70   75 1   
    74   71   72 2   
    75   71   76 1   
    76   76   77 1   
    77   76   85 1   
    78   77   78 1   
    79   77   80 1   
    80   77   86 1   
    81   78   79 2   
    82   78   93 1   
    83   80   81 1   
    84   80   87 1   
    85   80   88 1   
    86   81   82 1   
    87   81   89 1   
    88   81   90 1   
    89   82   83 1   
    90   82   84 2   
    91   83   91 1   
    92   83   92 1   
    93   93   94 1   
    94   93  100 1   
    95   94   95 1   
    96   94   97 1   
    97   94  101 1   
    98   95   96 2   
    99   95  109 1   
   100   97   98 1   
   101   97   99 1   
   102   97  102 1   
   103   98  103 1   
   104   98  104 1   
   105   98  105 1   
   106   99  106 1   
   107   99  107 1   
   108   99  108 1   
   109  109  110 1   
   110  109  117 1   
   111  110  111 1   
   112  110  113 1   
   113  110  118 1   
   114  111  112 2   
   115  111  123 1   
   116  113  114 1   
   117  113  119 1   
   118  113  120 1   
   119  114  115 1   
   120  114  116 2   
   121  115  121 1   
   122  115  122 1   
   123  123  124 1   
   124  123  135 1   
   125  124  125 1   
   126  124  127 1   
   127  124  136 1   
   128  125  126 2   
   129  125  144 1   
   130  127  128 1   
   131  127  137 1   
   132  127  138 1   
   133  128  129 ar  
   134  128  130 ar  
   135  129  131 ar  
   136  129  139 1   
   137  130  132 ar  
   138  130  140 1   
   139  131  133 ar  
   140  131  141 1   
   141  132  133 ar  
   142  132  142 1   
   143  133  134 1   
   144  134  143 1   
   145  144  145 1   
   146  144  153 1   
   147  145  146 1   
   148  145  148 1   
   149  145  154 1   
   150  146  147 2   
   151  146  159 1   
   152  148  149 1   
   153  148  155 1   
   154  148  156 1   
   155  149  150 1   
   156  149  157 1   
   157  149  158 1   
   158  150  151 1   
   159  150  152 1   
   160  159  160 1   
   161  159  168 1   
   162  160  161 1   
   163  160  163 1   
   164  160  169 1   
   165  161  162 2   
   166  161  174 1   
   167  163  164 1   
   168  163  170 1   
   169  163  171 1   
   170  164  165 1   
   171  164  172 1   
   172  164  173 1   
   173  165  166 1   
   174  165  167 1   
   175  174  175 1   
   176  174  179 1   
   177  175  176 1   
   178  175  177 1   
   179  175  178 1   
   180  181  182 1   
   181  181  183 1   
   182  184  185 1   
   183  184  186 1   
   184  187  188 1   
   185  187  189 1   
   186  190  191 1   
   187  190  192 1   
   188  193  194 1   
   189  193  195 1   
   190  196  197 1   
   191  196  198 1   
@<TRIPOS>SUBSTRUCTURE
     1 MOL         1 TEMP              0 ****  ****    0 ROOT
