@<TRIPOS>MOLECULE
MOL
  195   189     1     0     0
SMALL
resp


@<TRIPOS>ATOM
      1 C1          6.9810    0.9900    5.1200 c3        1 MOL     -0.233477
      2 C2          6.1790    0.9710    3.8120 c         1 MOL      0.658470
      3 O1          5.7900    1.9990    3.2760 o         1 MOL     -0.595480
      4 H1          8.0440    0.9030    4.8950 hc        1 MOL      0.062406
      5 H2          6.7970    1.9270    5.6460 hc        1 MOL      0.062406
      6 H3          6.6740    0.1540    5.7480 hc        1 MOL      0.062406
      7 N1          5.9210   -0.1900    3.2840 n         1 MOL     -0.377036
      8 C3          5.2650   -0.5270    1.9990 c3        1 MOL      0.089892
      9 C4          3.7690   -0.2540    1.8400 c         1 MOL      0.011615
     10 O2          3.1440   -0.8370    0.9270 o         1 MOL     -0.018859
     11 C5          5.5720   -1.9780    1.6540 c3        1 MOL     -0.134092
     12 C6          6.9490   -2.5020    2.1500 c         1 MOL      0.681647
     13 O3          7.2400   -2.6030    3.3510 o         1 MOL     -0.658598
     14 O4          7.8220   -2.6970    1.2540 o         1 MOL     -0.658598
     15 H4          6.2520   -1.0110    3.7720 hn        1 MOL      0.237385
     16 H5          5.7830    0.1570    1.3170 h1        1 MOL      0.132711
     17 H6          5.4350   -2.0830    0.5840 hc        1 MOL     -0.030547
     18 H7          4.8040   -2.6670    2.0170 hc        1 MOL     -0.030547
     19 N2          3.0930    0.2980    2.8350 n         1 MOL     -0.072740
     20 C7          1.5780    0.4090    2.9330 c3        1 MOL      0.262936
     21 C8          1.1630    1.7940    2.5780 c         1 MOL      0.341557
     22 O5          1.6260    2.8260    3.0820 o         1 MOL     -0.502139
     23 C9          1.2220    0.0980    4.4410 c3        1 MOL     -0.159090
     24 C10         1.6200   -1.2710    4.9840 c3        1 MOL     -0.057377
     25 C11         0.8710   -2.3510    4.1680 c3        1 MOL      0.165226
     26 C12         1.0590   -3.7360    4.7640 c3        1 MOL     -0.090233
     27 N3          0.0980   -4.7730    4.1960 n4        1 MOL     -0.401170
     28 H8          3.6710    0.6220    3.6070 hn        1 MOL      0.169363
     29 H9          1.1690   -0.3800    2.2910 h1        1 MOL     -0.323465
     30 H10         0.1380    0.2310    4.4160 hc        1 MOL      0.088066
     31 H11         1.5740    0.9520    5.0240 hc        1 MOL      0.088066
     32 H12         1.3790   -1.4470    6.0350 hc        1 MOL      0.024126
     33 H13         2.6930   -1.3550    4.8400 hc        1 MOL      0.024126
     34 H14         1.2140   -2.4330    3.1340 hc        1 MOL      0.051829
     35 H15        -0.1970   -2.1360    4.2730 hc        1 MOL      0.051829
     36 H16         0.8330   -3.6600    5.8320 hx        1 MOL      0.091313
     37 H17         2.0720   -4.0620    4.5340 hx        1 MOL      0.091313
     38 H18         0.0070   -4.7000    3.1850 hn        1 MOL      0.333102
     39 H19         0.4160   -5.6930    4.4580 hn        1 MOL      0.333102
     40 H20        -0.8450   -4.7130    4.5370 hn        1 MOL      0.333102
     41 N4          0.1510    2.0040    1.7240 n         1 MOL      0.022310
     42 C13        -0.6720    1.1280    0.8100 c3        1 MOL     -0.641362
     43 C14        -1.4640    0.0450    1.5830 c         1 MOL      0.648714
     44 O6         -0.9540   -1.1170    1.7050 o         1 MOL     -0.629640
     45 C15         0.1370    0.6690   -0.3940 c3        1 MOL     -0.099417
     46 C16         0.4650    1.7350   -1.3960 c         1 MOL      0.469514
     47 O7          0.0930    2.8940   -1.2090 o         1 MOL     -0.613276
     48 O8          0.9660    1.4630   -2.4730 o         1 MOL     -0.613276
     49 H21         0.1140    2.9900    1.5110 hn        1 MOL      0.139306
     50 H22        -1.5290    1.7060    0.4630 h1        1 MOL      0.154251
     51 H23        -0.4030   -0.1430   -0.8760 hc        1 MOL      0.171166
     52 H24         1.1110    0.2680   -0.0940 hc        1 MOL      0.171166
     53 N5         -2.4500    0.3990    2.4040 n         1 MOL     -0.414611
     54 C17        -3.0900    1.7110    2.4230 c3        1 MOL      0.074354
     55 C18        -3.8300    2.1230    3.7130 c         1 MOL      0.463695
     56 O9         -3.8420    1.5180    4.7540 o         1 MOL     -0.540203
     57 H25        -2.9490   -0.3850    2.8040 hn        1 MOL      0.328398
     58 H26        -3.8410    1.7620    1.6340 h1        1 MOL      0.059242
     59 H27        -2.3060    2.4550    2.3160 h1        1 MOL      0.059242
     60 N6         -4.6160    3.1540    3.6950 n         1 MOL     -0.339126
     61 C19        -5.0480    4.0050    2.5820 c3        1 MOL      0.043084
     62 C20        -5.9160    3.2670    1.5770 c         1 MOL      0.559971
     63 O10        -6.4780    2.2570    1.8420 o         1 MOL     -0.437564
     64 C21        -5.7180    5.3220    2.9200 c3        1 MOL     -0.112064
     65 C22        -6.9810    5.1550    3.6990 c         1 MOL      0.666931
     66 O11        -6.9780    4.6540    4.8680 o         1 MOL     -0.638617
     67 O12        -8.0490    5.5320    3.1750 o         1 MOL     -0.638617
     68 H28        -5.1280    3.3350    4.5430 hn        1 MOL      0.263465
     69 H29        -4.1700    4.3420    2.0440 h1        1 MOL     -0.047073
     70 H30        -5.9650    5.9340    2.0560 hc        1 MOL      0.011352
     71 H31        -4.9880    5.8580    3.5090 hc        1 MOL      0.011352
     72 N7         -6.0240    3.8690    0.3380 n         1 MOL     -0.436681
     73 C23        -6.8590    3.3920   -0.7240 c3        1 MOL     -0.030289
     74 C24        -6.4950    2.0740   -1.4170 c         1 MOL      0.482936
     75 O13        -7.4020    1.3670   -1.9110 o         1 MOL     -0.547416
     76 H32        -5.4500    4.6900    0.2070 hn        1 MOL      0.252724
     77 H33        -6.8690    4.1440   -1.5120 h1        1 MOL      0.095529
     78 H34        -7.9280    3.3680   -0.4790 h1        1 MOL      0.095529
     79 N8         -5.2010    1.6670   -1.5130 n         1 MOL     -0.401396
     80 C25        -4.8580    0.3160   -2.1390 c3        1 MOL      0.039542
     81 C26        -5.2620   -0.8790   -1.1860 c         1 MOL      0.592057
     82 O14        -4.8970   -0.8570   -0.0070 o         1 MOL     -0.501043
     83 C27        -3.3950    0.1290   -2.4670 c3        1 MOL      0.088090
     84 C28        -2.8450    1.1100   -3.3670 c3        1 MOL     -0.158687
     85 O15        -3.2140   -1.1330   -3.0170 oh        1 MOL     -0.600197
     86 H35        -4.4430    2.1750   -1.0800 hn        1 MOL      0.168224
     87 H36        -5.4190    0.2370   -3.0750 h1        1 MOL      0.083839
     88 H37        -2.7840    0.2420   -1.5690 h1        1 MOL      0.126624
     89 H38        -2.3450   -1.4420   -2.7260 ho        1 MOL      0.377575
     90 H39        -1.7590    1.0100   -3.3720 hc        1 MOL      0.063960
     91 H40        -3.2280    1.0370   -4.3820 hc        1 MOL      0.063960
     92 H41        -3.1780    2.1140   -3.1050 hc        1 MOL      0.063960
     93 N9         -5.9160   -1.8990   -1.7730 n         1 MOL     -0.380767
     94 C29        -6.3290   -3.0910   -0.9590 c3        1 MOL     -0.217801
     95 C30        -5.1230   -3.7470   -0.3530 c         1 MOL      0.554722
     96 O16        -5.2000   -4.2290    0.7910 o         1 MOL     -0.558420
     97 C31        -7.2460   -4.0460   -1.6780 c3        1 MOL      0.124921
     98 C32        -7.6990   -5.2200   -0.7450 c3        1 MOL     -0.012404
     99 C33        -6.5610   -4.7270   -2.8960 c3        1 MOL     -0.426378
    100 C34        -8.8620   -5.9360   -1.3490 c3        1 MOL     -0.013309
    101 H42        -6.1250   -1.9120   -2.7660 hn        1 MOL      0.286548
    102 H43        -6.8560   -2.6530   -0.1110 h1        1 MOL      0.150493
    103 H44        -8.0910   -3.4480   -2.0240 hc        1 MOL      0.054737
    104 H45        -7.8970   -4.9380    0.2920 hc        1 MOL      0.036605
    105 H46        -6.8840   -5.9370   -0.6590 hc        1 MOL      0.036605
    106 H47        -6.0350   -3.9710   -3.4760 hc        1 MOL      0.115567
    107 H48        -5.9230   -5.5530   -2.5920 hc        1 MOL      0.115567
    108 H49        -7.3720   -5.1560   -3.4880 hc        1 MOL      0.115567
    109 H50        -8.8510   -5.9210   -2.4400 hc        1 MOL     -0.001423
    110 H51        -8.9870   -6.9620   -1.0130 hc        1 MOL     -0.001423
    111 H52        -9.7520   -5.3900   -1.0570 hc        1 MOL     -0.001423
    112 N10        -3.9540   -3.7060   -1.0250 n         1 MOL     -0.392861
    113 C35        -2.7010   -4.4900   -0.7150 c3        1 MOL      0.076610
    114 C36        -1.4510   -3.6800   -1.0250 c         1 MOL      0.410200
    115 O17        -1.4360   -2.7950   -1.9130 o         1 MOL     -0.390695
    116 C37        -2.7150   -5.9050   -1.3660 c3        1 MOL      0.419011
    117 C38        -2.7440   -5.8240   -2.8870 c3        1 MOL     -0.310342
    118 O18        -3.7350   -6.6320   -0.7620 oh        1 MOL     -0.584554
    119 H53        -4.0410   -3.2170   -1.9100 hn        1 MOL      0.229593
    120 H54        -2.6250   -4.6310    0.3670 h1        1 MOL      0.032857
    121 H55        -1.7950   -6.3990   -1.0620 h1        1 MOL     -0.058985
    122 H56        -3.5230   -6.7120    0.1730 ho        1 MOL      0.361942
    123 H57        -1.7240   -5.6490   -3.2230 hc        1 MOL      0.092441
    124 H58        -3.1910   -6.7600   -3.2260 hc        1 MOL      0.092441
    125 H59        -3.3680   -4.9740   -3.1440 hc        1 MOL      0.092441
    126 N11        -0.3160   -4.0610   -0.3980 n         1 MOL     -0.435802
    127 C39         0.9180   -3.2740   -0.3330 c3        1 MOL     -0.037441
    128 C40         1.5010   -2.8240   -1.6640 c         1 MOL      0.348661
    129 O19         1.3750   -3.5510   -2.6540 o         1 MOL     -0.466191
    130 C41         1.9390   -4.0590    0.5710 c3        1 MOL      0.332241
    131 C42         2.5270   -5.2990   -0.1490 c3        1 MOL     -0.309289
    132 O20         1.3880   -4.5520    1.7690 oh        1 MOL     -0.689086
    133 H60        -0.4140   -4.7140    0.3700 hn        1 MOL      0.273916
    134 H61         0.7340   -2.3340    0.1810 h1        1 MOL      0.254760
    135 H62         2.7570   -3.3730    0.8250 h1        1 MOL      0.012194
    136 H63         2.1250   -4.6000    2.3860 ho        1 MOL      0.445793
    137 H64         3.0820   -5.9380    0.5350 hc        1 MOL      0.091667
    138 H65         1.7270   -5.9360   -0.5190 hc        1 MOL      0.091667
    139 H66         3.0460   -4.9510   -1.0350 hc        1 MOL      0.091667
    140 N12         2.3520   -1.7940   -1.6250 n         1 MOL     -0.214935
    141 C43         3.2120   -1.3700   -2.7200 c3        1 MOL      0.062273
    142 C44         3.9190   -0.0190   -2.6100 c         1 MOL      0.680014
    143 O21         4.4350    0.3880   -3.6620 o         1 MOL     -0.621648
    144 C45         4.1960   -2.4940   -3.1130 c3        1 MOL     -0.241545
    145 C46         5.1710   -2.8840   -2.0110 c3        1 MOL      0.271883
    146 C47         5.9800   -4.1070   -2.5500 c3        1 MOL     -0.215314
    147 C48         6.8050   -4.8330   -1.5070 c3        1 MOL      0.046743
    148 N13         7.9230   -4.0150   -1.0010 n4        1 MOL     -0.189331
    149 H67         2.6010   -1.4480   -0.7050 hn        1 MOL     -0.180667
    150 H68         2.5240   -1.2130   -3.5560 h1        1 MOL      0.108330
    151 H69         4.7130   -2.2270   -4.0330 hc        1 MOL      0.072151
    152 H70         3.6370   -3.3980   -3.3370 hc        1 MOL      0.072151
    153 H71         4.6300   -3.2170   -1.1350 hc        1 MOL     -0.031348
    154 H72         5.8470   -2.0510   -1.8000 hc        1 MOL     -0.031348
    155 H73         6.5990   -3.8390   -3.4030 hc        1 MOL      0.083296
    156 H74         5.1030   -4.7100   -2.7930 hc        1 MOL      0.083296
    157 H75         7.2190   -5.6350   -2.1210 hx        1 MOL      0.045728
    158 H76         6.2140   -5.1820   -0.6580 hx        1 MOL      0.045728
    159 H77         8.5930   -4.5330   -0.4490 hn        1 MOL      0.261229
    160 H78         8.4850   -3.6800   -1.7690 hn        1 MOL      0.261229
    161 H79         7.7050   -3.2890   -0.3430 hn        1 MOL      0.261229
    162 N14         3.8920    0.7320   -1.5020 n         1 MOL     -0.408245
    163 C49         4.5690    2.0520   -1.4400 c3        1 MOL      0.190342
    164 C50         6.1190    2.0470   -1.4710 c         1 MOL      0.305497
    165 O22         6.7110    1.2610   -0.7240 o         1 MOL     -0.495860
    166 C51         3.9240    2.8700   -0.2720 c3        1 MOL      0.544296
    167 C52         4.2880    4.3250   -0.1290 c3        1 MOL     -0.298533
    168 C53         3.9560    5.0980   -1.4240 c         1 MOL      0.607331
    169 O23         4.8500    5.6500   -2.0960 o         1 MOL     -0.698113
    170 O24         2.7460    5.2410   -1.6470 o         1 MOL     -0.698113
    171 H80         3.3200    0.4090   -0.7420 hn        1 MOL      0.147930
    172 H81         4.4180    2.5880   -2.3760 h1        1 MOL      0.011041
    173 H82         4.1880    2.2930    0.6110 hc        1 MOL     -0.151115
    174 H83         2.8580    2.8080   -0.5030 hc        1 MOL     -0.151115
    175 H84         5.3530    4.1880    0.0060 hc        1 MOL      0.068630
    176 H85         3.7550    4.7450    0.7260 hc        1 MOL      0.068630
    177 N15         6.7120    3.0420   -2.1610 n         1 MOL     -0.274007
    178 C54         8.1980    3.2930   -2.2090 c3        1 MOL     -0.101363
    179 H86         8.5900    2.9680   -3.1730 h1        1 MOL      0.077268
    180 H87         8.3920    4.3570   -2.0790 h1        1 MOL      0.077268
    181 H88         8.6880    2.7340   -1.4110 h1        1 MOL      0.077268
    182 H89         6.2090    3.6000   -2.8270 hn        1 MOL      0.317070
    183 Ca1         0.2520    5.2450   -1.9240 Ca        1 MOL      1.561085
    184 O25         2.5130    6.4910   -3.9430 oh        1 MOL     -0.723290
    185 H90         2.3640    7.2540   -3.3840 ho        1 MOL      0.357241
    186 H91         3.1200    5.9460   -3.4550 ho        1 MOL      0.357241
    187 O26        -0.2580    6.8070   -4.3150 oh        1 MOL     -0.723290
    188 H92         0.4560    7.0080   -4.9160 ho        1 MOL      0.357241
    189 H93        -0.7530    7.6290   -4.2530 ho        1 MOL      0.357241
    190 O27         1.2970    3.5360   -4.0170 oh        1 MOL     -0.723290
    191 H94         1.4980    2.7380   -3.5350 ho        1 MOL      0.357241
    192 H95         0.7610    3.2470   -4.7500 ho        1 MOL      0.357241
    193 O28        -2.1010    4.7310   -3.0870 oh        1 MOL     -0.723290
    194 H96        -2.2490    4.5930   -4.0240 ho        1 MOL      0.357241
    195 H97        -2.7570    5.3820   -2.8310 ho        1 MOL      0.357241
@<TRIPOS>BOND
     1    1    2 1   
     2    1    4 1   
     3    1    5 1   
     4    1    6 1   
     5    2    3 2   
     6    2    7 1   
     7    7    8 1   
     8    7   15 1   
     9    8    9 1   
    10    8   11 1   
    11    8   16 1   
    12    9   10 2   
    13    9   19 1   
    14   11   12 1   
    15   11   17 1   
    16   11   18 1   
    17   12   13 1   
    18   12   14 1   
    19   19   20 1   
    20   19   28 1   
    21   20   21 1   
    22   20   23 1   
    23   20   29 1   
    24   21   22 2   
    25   21   41 1   
    26   23   24 1   
    27   23   30 1   
    28   23   31 1   
    29   24   25 1   
    30   24   32 1   
    31   24   33 1   
    32   25   26 1   
    33   25   34 1   
    34   25   35 1   
    35   26   27 1   
    36   26   36 1   
    37   26   37 1   
    38   27   38 1   
    39   27   39 1   
    40   27   40 1   
    41   41   42 1   
    42   41   49 1   
    43   42   43 1   
    44   42   45 1   
    45   42   50 1   
    46   43   44 2   
    47   43   53 1   
    48   45   46 1   
    49   45   51 1   
    50   45   52 1   
    51   46   47 1   
    52   46   48 1   
    53   53   54 1   
    54   53   57 1   
    55   54   55 1   
    56   54   58 1   
    57   54   59 1   
    58   55   56 2   
    59   55   60 1   
    60   60   61 1   
    61   60   68 1   
    62   61   62 1   
    63   61   64 1   
    64   61   69 1   
    65   62   63 2   
    66   62   72 1   
    67   64   65 1   
    68   64   70 1   
    69   64   71 1   
    70   65   66 1   
    71   65   67 1   
    72   72   73 1   
    73   72   76 1   
    74   73   74 1   
    75   73   77 1   
    76   73   78 1   
    77   74   75 2   
    78   74   79 1   
    79   79   80 1   
    80   79   86 1   
    81   80   81 1   
    82   80   83 1   
    83   80   87 1   
    84   81   82 2   
    85   81   93 1   
    86   83   84 1   
    87   83   85 1   
    88   83   88 1   
    89   84   90 1   
    90   84   91 1   
    91   84   92 1   
    92   85   89 1   
    93   93   94 1   
    94   93  101 1   
    95   94   95 1   
    96   94   97 1   
    97   94  102 1   
    98   95   96 2   
    99   95  112 1   
   100   97   98 1   
   101   97   99 1   
   102   97  103 1   
   103   98  100 1   
   104   98  104 1   
   105   98  105 1   
   106   99  106 1   
   107   99  107 1   
   108   99  108 1   
   109  100  109 1   
   110  100  110 1   
   111  100  111 1   
   112  112  113 1   
   113  112  119 1   
   114  113  114 1   
   115  113  116 1   
   116  113  120 1   
   117  114  115 2   
   118  114  126 1   
   119  116  117 1   
   120  116  118 1   
   121  116  121 1   
   122  117  123 1   
   123  117  124 1   
   124  117  125 1   
   125  118  122 1   
   126  126  127 1   
   127  126  133 1   
   128  127  128 1   
   129  127  130 1   
   130  127  134 1   
   131  128  129 2   
   132  128  140 1   
   133  130  131 1   
   134  130  132 1   
   135  130  135 1   
   136  131  137 1   
   137  131  138 1   
   138  131  139 1   
   139  132  136 1   
   140  140  141 1   
   141  140  149 1   
   142  141  142 1   
   143  141  144 1   
   144  141  150 1   
   145  142  143 2   
   146  142  162 1   
   147  144  145 1   
   148  144  151 1   
   149  144  152 1   
   150  145  146 1   
   151  145  153 1   
   152  145  154 1   
   153  146  147 1   
   154  146  155 1   
   155  146  156 1   
   156  147  148 1   
   157  147  157 1   
   158  147  158 1   
   159  148  159 1   
   160  148  160 1   
   161  148  161 1   
   162  162  163 1   
   163  162  171 1   
   164  163  164 1   
   165  163  166 1   
   166  163  172 1   
   167  164  165 2   
   168  164  177 1   
   169  166  167 1   
   170  166  173 1   
   171  166  174 1   
   172  167  168 1   
   173  167  175 1   
   174  167  176 1   
   175  168  169 1   
   176  168  170 1   
   177  177  178 1   
   178  177  182 1   
   179  178  179 1   
   180  178  180 1   
   181  178  181 1   
   182  184  185 1   
   183  184  186 1   
   184  187  188 1   
   185  187  189 1   
   186  190  191 1   
   187  190  192 1   
   188  193  194 1   
   189  193  195 1   
@<TRIPOS>SUBSTRUCTURE
     1 MOL         1 TEMP              0 ****  ****    0 ROOT
