@<TRIPOS>MOLECULE
MOL
  178   175     1     0     0
SMALL
resp


@<TRIPOS>ATOM
      1 C1          1.4990   -1.1520    5.1190 c3        1 MOL     -0.324675
      2 C2          2.5570   -0.7860    4.1190 c         1 MOL      0.713475
      3 O1          2.2880   -0.5490    2.9250 o         1 MOL     -0.556709
      4 H1          1.7450   -2.1120    5.5730 hc        1 MOL      0.070278
      5 H2          1.4500   -0.3870    5.8940 hc        1 MOL      0.070278
      6 H3          0.5340   -1.2240    4.6180 hc        1 MOL      0.070278
      7 N1          3.8100   -0.7850    4.4870 n         1 MOL     -0.557756
      8 C3          4.9870   -0.4990    3.6260 c3        1 MOL     -0.033091
      9 C4          5.3160   -1.4790    2.4350 c         1 MOL      0.537856
     10 O2          6.1720   -1.1900    1.5830 o         1 MOL     -0.467674
     11 C5          6.1220   -0.4410    4.6380 c3        1 MOL     -0.212389
     12 C6          7.1760    0.6090    4.1520 c         1 MOL      0.681491
     13 O3          8.3480    0.2270    4.1120 o         1 MOL     -0.687280
     14 O4          6.8270    1.7790    3.9670 o         1 MOL     -0.687280
     15 H4          3.9710   -0.6440    5.4800 hn        1 MOL      0.286150
     16 H5          4.7670    0.4710    3.1950 h1        1 MOL      0.109836
     17 H6          6.5360   -1.4460    4.7800 hc        1 MOL      0.042176
     18 H7          5.7090   -0.1030    5.5890 hc        1 MOL      0.042176
     19 N2          4.5980   -2.6100    2.3060 n         1 MOL     -0.389717
     20 C7          4.5390   -3.6840    1.2990 c3        1 MOL      0.252424
     21 C8          4.6230   -3.1160   -0.2000 c         1 MOL      0.698550
     22 O5          3.5530   -3.0540   -0.8140 o         1 MOL     -0.747750
     23 C9          5.4200   -4.8270    1.6930 c3        1 MOL     -0.401692
     24 H8          3.8740   -2.6900    3.0150 hn        1 MOL      0.241928
     25 H9          3.5350   -4.1170    1.3030 h1        1 MOL      0.059630
     26 H10         5.4130   -5.6070    0.9420 hc        1 MOL      0.091853
     27 H11         6.4470   -4.4890    1.7800 hc        1 MOL      0.091853
     28 H12         5.1270   -5.2040    2.6690 hc        1 MOL      0.091853
     29 N3          5.8410   -2.7340   -0.6510 n         1 MOL     -0.531871
     30 C10         6.0610   -2.2600   -2.0120 c3        1 MOL      0.097106
     31 C11         6.3920   -0.7360   -2.1510 c         1 MOL      0.409854
     32 O6          6.9530   -0.2450   -3.1300 o         1 MOL     -0.519880
     33 C12         7.1820   -3.1070   -2.7300 c3        1 MOL     -0.117019
     34 C13         8.5130   -2.9970   -1.9960 c         1 MOL      0.790216
     35 O7          9.3950   -3.7400   -2.3590 o         1 MOL     -0.729807
     36 O8          8.6670   -2.0890   -1.1720 o         1 MOL     -0.729807
     37 H13         6.6150   -2.5640   -0.0250 hn        1 MOL      0.304761
     38 H14         5.1130   -2.4140   -2.5180 h1        1 MOL     -0.000931
     39 H15         7.3180   -2.7080   -3.7390 hc        1 MOL     -0.019462
     40 H16         7.0860   -4.1890   -2.7700 hc        1 MOL     -0.019462
     41 N4          6.0460    0.0250   -1.1140 n         1 MOL     -0.058155
     42 C14         6.2050    1.5060   -1.0360 c3        1 MOL     -0.201158
     43 C15         5.1380    2.2640   -1.8440 c         1 MOL      0.721065
     44 O9          5.3750    3.2030   -2.5500 o         1 MOL     -0.616405
     45 H17         5.5580   -0.3780   -0.3300 hn        1 MOL      0.163405
     46 H18         7.1620    1.8500   -1.4290 h1        1 MOL      0.102294
     47 H19         5.9400    1.7530   -0.0020 h1        1 MOL      0.102294
     48 N5          3.8720    1.8250   -1.7800 n         1 MOL     -0.598411
     49 C16         2.7300    2.3850   -2.5560 c3        1 MOL      0.014028
     50 C17         2.5240    3.7730   -1.9730 c         1 MOL      0.649253
     51 O10         2.4210    3.8220   -0.7410 o         1 MOL     -0.503358
     52 C18         1.3770    1.5710   -2.4580 c3        1 MOL     -0.511610
     53 C19         1.5810    0.1270   -2.9750 c         1 MOL      0.852081
     54 N6          0.8710   -0.2840   -4.0420 n         1 MOL     -0.845742
     55 O11         2.3180   -0.6970   -2.4120 o         1 MOL     -0.586994
     56 H20         3.7890    1.0950   -1.0840 hn        1 MOL      0.331555
     57 H21         3.1000    2.5470   -3.5630 h1        1 MOL      0.077244
     58 H22         0.6420    2.0970   -3.0660 hc        1 MOL      0.188017
     59 H23         0.9350    1.4700   -1.4710 hc        1 MOL      0.188017
     60 H24         0.3040    0.3860   -4.5440 hn        1 MOL      0.342819
     61 H25         1.0170   -1.1890   -4.4520 hn        1 MOL      0.342819
     62 N7          2.3130    4.8390   -2.7330 n         1 MOL     -0.367906
     63 C20         1.9980    6.2340   -2.4320 c3        1 MOL     -0.258463
     64 C21         0.5740    6.5910   -2.0550 c         1 MOL      0.552948
     65 O12        -0.4120    6.2370   -2.7370 o         1 MOL     -0.526879
     66 H26         2.1160    4.5690   -3.6880 hn        1 MOL      0.252008
     67 H27         2.2810    6.8620   -3.2750 h1        1 MOL      0.140234
     68 H28         2.7340    6.4350   -1.6470 h1        1 MOL      0.140234
     69 N8          0.3100    7.1500   -0.8540 n         1 MOL     -0.360291
     70 C22        -1.0220    7.7160   -0.4210 c3        1 MOL     -0.413976
     71 C23        -1.9240    6.6150    0.1060 c         1 MOL      0.522643
     72 O13        -3.0200    6.9190    0.5260 o         1 MOL     -0.553020
     73 C24        -0.8670    8.9500    0.5480 c3        1 MOL      0.478579
     74 C25        -0.3010    8.5940    1.9440 c3        1 MOL     -0.168549
     75 O14         0.1840    9.8040    0.1510 oh        1 MOL     -0.656101
     76 H29         1.1090    7.4880   -0.3250 hn        1 MOL      0.240139
     77 H30        -1.4100    8.0660   -1.3720 h1        1 MOL      0.217488
     78 H31        -1.7680    9.5370    0.7200 h1        1 MOL      0.048982
     79 H32         1.0220    9.3730    0.3030 ho        1 MOL      0.387922
     80 H33        -1.1740    8.2340    2.4900 hc        1 MOL      0.036108
     81 H34         0.5030    7.8770    2.0670 hc        1 MOL      0.036108
     82 H35         0.0310    9.4010    2.6050 hc        1 MOL      0.036108
     83 N9         -1.4980    5.3440    0.0970 n         1 MOL     -0.212566
     84 C26        -2.1590    4.1480    0.6440 c3        1 MOL     -0.004906
     85 C27        -1.8760    2.8990   -0.1790 c         1 MOL      0.522150
     86 O15        -1.1260    2.9520   -1.1930 o         1 MOL     -0.503935
     87 C28        -2.0030    4.0200    2.1850 c3        1 MOL      0.081826
     88 C29        -0.5210    3.7360    2.5990 c3        1 MOL      0.095887
     89 C30        -2.6020    5.1590    3.0320 c3        1 MOL     -0.209561
     90 C31         0.5650    4.7980    2.5970 c3        1 MOL      0.012330
     91 H36        -0.5960    5.2340   -0.3340 hn        1 MOL      0.219468
     92 H37        -3.2240    4.3500    0.5340 h1        1 MOL      0.044799
     93 H38        -2.5080    3.0850    2.4150 hc        1 MOL     -0.042004
     94 H39        -0.2420    2.8510    2.0180 hc        1 MOL     -0.014038
     95 H40        -0.5150    3.4580    3.6520 hc        1 MOL     -0.014038
     96 H41        -2.0820    6.1140    2.9210 hc        1 MOL      0.053040
     97 H42        -3.6550    5.4180    2.9060 hc        1 MOL      0.053040
     98 H43        -2.5190    4.9330    4.0980 hc        1 MOL      0.053040
     99 H44         1.5190    4.3150    2.8310 hc        1 MOL     -0.004402
    100 H45         0.6960    5.2460    1.6100 hc        1 MOL     -0.004402
    101 H46         0.2470    5.5660    3.2990 hc        1 MOL     -0.004402
    102 N10        -2.4500    1.7730    0.2270 n         1 MOL     -0.616454
    103 C32        -2.1980    0.4480   -0.3610 c3        1 MOL      0.239160
    104 C33        -3.4310   -0.3680   -0.6040 c         1 MOL      0.423962
    105 O16        -3.3990   -1.5920   -0.4190 o         1 MOL     -0.472906
    106 C34        -1.1310   -0.2200    0.5010 c3        1 MOL     -0.147109
    107 C35        -0.3220   -1.2370   -0.3280 c         1 MOL      0.731764
    108 O17         0.6990   -1.7340    0.1350 o         1 MOL     -0.766912
    109 O18        -0.6150   -1.5730   -1.5080 o         1 MOL     -0.766912
    110 H47        -3.0340    1.8020    1.0470 hn        1 MOL      0.321184
    111 H48        -1.7290    0.6360   -1.3210 h1        1 MOL      0.007771
    112 H49        -1.5310   -0.7440    1.3670 hc        1 MOL      0.077460
    113 H50        -0.4370    0.5780    0.7870 hc        1 MOL      0.077460
    114 N11        -4.5230    0.2820   -0.9080 n         1 MOL     -0.379550
    115 C36        -5.8910   -0.2820   -1.1380 c3        1 MOL      0.080708
    116 C37        -6.2330   -1.3010   -0.0740 c         1 MOL      0.374829
    117 O19        -6.1600   -1.0350    1.0780 o         1 MOL     -0.436948
    118 C38        -6.9660    0.8400   -1.1050 c3        1 MOL     -0.395387
    119 C39        -8.4060    0.4580   -1.2250 ca        1 MOL      0.189929
    120 C40        -9.0420    0.0650   -2.4390 ca        1 MOL     -0.228860
    121 C41        -9.2590    0.5260   -0.0790 ca        1 MOL     -0.228860
    122 C42       -10.4000   -0.3570   -2.5680 ca        1 MOL     -0.045584
    123 C43       -10.6540    0.2230   -0.2270 ca        1 MOL     -0.045584
    124 C44       -11.2290   -0.1590   -1.4690 ca        1 MOL     -0.199207
    125 H51        -4.4820    1.2760   -1.0670 hn        1 MOL      0.276228
    126 H52        -6.0090   -0.7080   -2.1370 h1        1 MOL      0.060883
    127 H53        -6.5640    1.5360   -1.8440 hc        1 MOL      0.138321
    128 H54        -6.9200    1.3340   -0.1370 hc        1 MOL      0.138321
    129 H55        -8.3440    0.0330   -3.2640 ha        1 MOL      0.138940
    130 H56        -8.9230    0.8380    0.8970 ha        1 MOL      0.138940
    131 H57       -10.7170   -0.6740   -3.5480 ha        1 MOL      0.096061
    132 H58       -11.3380    0.3480    0.6040 ha        1 MOL      0.096061
    133 H59       -12.2680   -0.4650   -1.4870 ha        1 MOL      0.123202
    134 N12        -6.5570   -2.5760   -0.4380 n         1 MOL     -0.027818
    135 C45        -6.8530   -3.6340    0.5200 c3        1 MOL     -0.066035
    136 C46        -5.8610   -3.9160    1.6130 c         1 MOL      0.350597
    137 O20        -6.2690   -4.3320    2.7080 o         1 MOL     -0.539131
    138 C47        -6.8900   -4.9340   -0.3340 c3        1 MOL      0.028848
    139 C48        -7.5580   -4.4130   -1.7040 c3        1 MOL     -0.174944
    140 C49        -6.7230   -3.0890   -1.7840 c3        1 MOL      0.097817
    141 H60        -7.8360   -3.4250    0.9470 h1        1 MOL      0.079544
    142 H61        -5.8680   -5.2730   -0.5180 hc        1 MOL      0.037781
    143 H62        -7.3990   -5.8160    0.0420 hc        1 MOL      0.037781
    144 H63        -7.3540   -5.1030   -2.5140 hc        1 MOL      0.054274
    145 H64        -8.6160   -4.1370   -1.6960 hc        1 MOL      0.054274
    146 H65        -5.7220   -3.2990   -2.1620 h1        1 MOL     -0.006330
    147 H66        -7.1760   -2.4050   -2.4940 h1        1 MOL     -0.006330
    148 N13        -4.5790   -3.6650    1.4200 n         1 MOL     -0.131693
    149 C50        -3.4660   -3.7320    2.4240 c3        1 MOL     -0.115293
    150 C51        -3.4440   -2.5110    3.3640 c         1 MOL      0.392701
    151 O21        -2.8090   -2.5100    4.4600 o         1 MOL     -0.544129
    152 C52        -2.0710   -3.8030    1.7660 c3        1 MOL      0.065697
    153 C53        -1.7370   -5.2060    1.2210 c3        1 MOL     -0.320960
    154 C54        -0.3780   -5.0810    0.5560 c         1 MOL      0.771466
    155 O22         0.7700   -5.3470    1.0630 o         1 MOL     -0.733730
    156 O23        -0.4440   -4.7180   -0.6080 o         1 MOL     -0.733730
    157 H67        -4.3000   -3.2730    0.5280 hn        1 MOL      0.176946
    158 H68        -3.5100   -4.6100    3.0720 h1        1 MOL      0.121751
    159 H69        -1.3690   -3.6310    2.5760 hc        1 MOL      0.064448
    160 H70        -1.9990   -2.9810    1.0520 hc        1 MOL      0.064448
    161 H71        -2.5080   -5.5900    0.5500 hc        1 MOL      0.047420
    162 H72        -1.7570   -5.9280    2.0260 hc        1 MOL      0.047420
    163 N14        -4.1870   -1.4070    3.0410 n         1 MOL     -0.004840
    164 C55        -4.4850   -0.3430    3.9850 c3        1 MOL     -0.313120
    165 H73        -4.8010    0.5470    3.4410 h1        1 MOL      0.108763
    166 H74        -5.2840   -0.6630    4.6530 h1        1 MOL      0.108763
    167 H75        -3.5940   -0.1130    4.5680 h1        1 MOL      0.108763
    168 H76        -4.5830   -1.4410    2.1090 hn        1 MOL      0.079479
    169 Ca1         1.2500   -3.1890   -1.9520 Ca        1 MOL      1.788926
    170 O24         1.8700   -5.6540   -2.5340 oh        1 MOL     -0.846959
    171 H77         1.7430   -5.9750   -3.4300 ho        1 MOL      0.415278
    172 H78         2.3430   -6.3660   -2.0960 ho        1 MOL      0.415278
    173 O25        -0.8370   -3.8600   -3.5610 oh        1 MOL     -0.846959
    174 H79        -1.3800   -3.2110   -4.0110 ho        1 MOL      0.415278
    175 H80        -0.8640   -4.6370   -4.1300 ho        1 MOL      0.415278
    176 O26         1.8510   -2.9220   -4.6450 oh        1 MOL     -0.846959
    177 H81         1.5900   -3.5800   -5.2940 ho        1 MOL      0.415278
    178 H82         2.3430   -2.2730   -5.1510 ho        1 MOL      0.415278
@<TRIPOS>BOND
     1    1    2 1   
     2    1    4 1   
     3    1    5 1   
     4    1    6 1   
     5    2    3 2   
     6    2    7 1   
     7    7    8 1   
     8    7   15 1   
     9    8    9 1   
    10    8   11 1   
    11    8   16 1   
    12    9   10 2   
    13    9   19 1   
    14   11   12 1   
    15   11   17 1   
    16   11   18 1   
    17   12   13 1   
    18   12   14 1   
    19   19   20 1   
    20   19   24 1   
    21   20   21 1   
    22   20   23 1   
    23   20   25 1   
    24   21   22 2   
    25   21   29 1   
    26   23   26 1   
    27   23   27 1   
    28   23   28 1   
    29   29   30 1   
    30   29   37 1   
    31   30   31 1   
    32   30   33 1   
    33   30   38 1   
    34   31   32 2   
    35   31   41 1   
    36   33   34 1   
    37   33   39 1   
    38   33   40 1   
    39   34   35 1   
    40   34   36 1   
    41   41   42 1   
    42   41   45 1   
    43   42   43 1   
    44   42   46 1   
    45   42   47 1   
    46   43   44 2   
    47   43   48 1   
    48   48   49 1   
    49   48   56 1   
    50   49   50 1   
    51   49   52 1   
    52   49   57 1   
    53   50   51 2   
    54   50   62 1   
    55   52   53 1   
    56   52   58 1   
    57   52   59 1   
    58   53   54 1   
    59   53   55 2   
    60   54   60 1   
    61   54   61 1   
    62   62   63 1   
    63   62   66 1   
    64   63   64 1   
    65   63   67 1   
    66   63   68 1   
    67   64   65 2   
    68   64   69 1   
    69   69   70 1   
    70   69   76 1   
    71   70   71 1   
    72   70   73 1   
    73   70   77 1   
    74   71   72 2   
    75   71   83 1   
    76   73   74 1   
    77   73   75 1   
    78   73   78 1   
    79   74   80 1   
    80   74   81 1   
    81   74   82 1   
    82   75   79 1   
    83   83   84 1   
    84   83   91 1   
    85   84   85 1   
    86   84   87 1   
    87   84   92 1   
    88   85   86 2   
    89   85  102 1   
    90   87   88 1   
    91   87   89 1   
    92   87   93 1   
    93   88   90 1   
    94   88   94 1   
    95   88   95 1   
    96   89   96 1   
    97   89   97 1   
    98   89   98 1   
    99   90   99 1   
   100   90  100 1   
   101   90  101 1   
   102  102  103 1   
   103  102  110 1   
   104  103  104 1   
   105  103  106 1   
   106  103  111 1   
   107  104  105 2   
   108  104  114 1   
   109  106  107 1   
   110  106  112 1   
   111  106  113 1   
   112  107  108 1   
   113  107  109 1   
   114  114  115 1   
   115  114  125 1   
   116  115  116 1   
   117  115  118 1   
   118  115  126 1   
   119  116  117 2   
   120  116  134 1   
   121  118  119 1   
   122  118  127 1   
   123  118  128 1   
   124  119  120 ar  
   125  119  121 ar  
   126  120  122 ar  
   127  120  129 1   
   128  121  123 ar  
   129  121  130 1   
   130  122  124 ar  
   131  122  131 1   
   132  123  124 ar  
   133  123  132 1   
   134  124  133 1   
   135  134  135 1   
   136  134  140 1   
   137  135  136 1   
   138  135  138 1   
   139  135  141 1   
   140  136  137 2   
   141  136  148 1   
   142  138  139 1   
   143  138  142 1   
   144  138  143 1   
   145  139  140 1   
   146  139  144 1   
   147  139  145 1   
   148  140  146 1   
   149  140  147 1   
   150  148  149 1   
   151  148  157 1   
   152  149  150 1   
   153  149  152 1   
   154  149  158 1   
   155  150  151 2   
   156  150  163 1   
   157  152  153 1   
   158  152  159 1   
   159  152  160 1   
   160  153  154 1   
   161  153  161 1   
   162  153  162 1   
   163  154  155 1   
   164  154  156 1   
   165  163  164 1   
   166  163  168 1   
   167  164  165 1   
   168  164  166 1   
   169  164  167 1   
   170  170  171 1   
   171  170  172 1   
   172  173  174 1   
   173  173  175 1   
   174  176  177 1   
   175  176  178 1   
@<TRIPOS>SUBSTRUCTURE
     1 MOL         1 TEMP              0 ****  ****    0 ROOT
