@<TRIPOS>MOLECULE
MOL
  188   182     1     0     0
SMALL
resp


@<TRIPOS>ATOM
      1 C1         13.0970    5.4180   -0.0610 c3        1 MOL     -0.455259
      2 C2         12.2740    4.2550    0.5320 c         1 MOL      0.762765
      3 O1         12.3040    4.0740    1.7290 o         1 MOL     -0.566700
      4 H1         12.9010    6.3280    0.5070 hc        1 MOL      0.118152
      5 H2         14.1580    5.1780   -0.0060 hc        1 MOL      0.118152
      6 H3         12.8120    5.5710   -1.1020 hc        1 MOL      0.118152
      7 N1         11.6050    3.3850   -0.2800 n         1 MOL     -0.714635
      8 C3         11.3180    2.0340    0.1940 c3        1 MOL      0.223765
      9 C4         10.0080    1.4220   -0.3640 c         1 MOL      0.530741
     10 O2          9.4130    2.0250   -1.2930 o         1 MOL     -0.568667
     11 C5         12.4440    1.1710   -0.3130 c3        1 MOL     -0.021812
     12 C6         12.5540   -0.2260    0.3120 c         1 MOL      0.616760
     13 O3         13.2060   -1.1260   -0.3030 o         1 MOL     -0.665515
     14 O4         11.8340   -0.4690    1.3420 o         1 MOL     -0.665515
     15 H4         11.5540    3.5510   -1.2710 hn        1 MOL      0.343771
     16 H5         11.4250    1.9530    1.2750 h1        1 MOL      0.038412
     17 H6         13.3710    1.6760   -0.0380 hc        1 MOL      0.014154
     18 H7         12.4120    1.0750   -1.3950 hc        1 MOL      0.014154
     19 N2          9.5280    0.3560    0.2290 n         1 MOL     -0.387882
     20 C7          8.2860   -0.3280   -0.1530 c3        1 MOL     -0.058614
     21 C8          7.0890    0.1310    0.6510 c         1 MOL      0.699871
     22 O5          7.0010    0.0950    1.8550 o         1 MOL     -0.591265
     23 C9          8.5950   -1.8610   -0.0180 c3        1 MOL     -0.148745
     24 C10         9.0600   -2.3560    1.3580 c3        1 MOL      0.116777
     25 C11         9.6690   -3.7900    1.3170 c3        1 MOL     -0.102060
     26 C12        11.2090   -3.7950    1.0260 c3        1 MOL     -0.097142
     27 N3         12.0950   -3.1920    1.9410 n4        1 MOL     -0.157155
     28 H8         10.0950   -0.0750    0.9390 hn        1 MOL      0.210918
     29 H9          8.0230   -0.0220   -1.1710 h1        1 MOL      0.081565
     30 H10         9.4730   -1.9390   -0.6520 hc        1 MOL      0.073218
     31 H11         7.8170   -2.4650   -0.4900 hc        1 MOL      0.073218
     32 H12         8.2820   -2.2090    2.1140 hc        1 MOL      0.012720
     33 H13         9.8860   -1.7340    1.7030 hc        1 MOL      0.012720
     34 H14         9.1210   -4.4580    0.6640 hc        1 MOL      0.045102
     35 H15         9.5390   -4.2250    2.3120 hc        1 MOL      0.045102
     36 H16        11.3950   -3.3150    0.0650 hx        1 MOL      0.103233
     37 H17        11.4360   -4.8660    1.0180 hx        1 MOL      0.103233
     38 H18        13.0490   -3.5100    1.7980 hn        1 MOL      0.262441
     39 H19        12.0570   -2.1820    1.9260 hn        1 MOL      0.262441
     40 H20        12.0230   -3.4950    2.9010 hn        1 MOL      0.262441
     41 N4          5.9630    0.4380    0.0480 n         1 MOL     -0.495754
     42 C13         4.6680    0.5250    0.6650 c3        1 MOL      0.017639
     43 C14         4.2530   -0.8640    1.1050 c         1 MOL      0.613593
     44 O6          4.3010   -1.8180    0.3110 o         1 MOL     -0.513883
     45 C15         3.5660    1.0000   -0.3340 c3        1 MOL     -0.262493
     46 C16         2.1550    1.0530    0.3240 c         1 MOL      0.722976
     47 O7          1.5590    0.0020    0.6100 o         1 MOL     -0.763281
     48 O8          1.4870    2.1270    0.4620 o         1 MOL     -0.763281
     49 H21         5.9420    0.3840   -0.9610 hn        1 MOL      0.273815
     50 H22         4.7760    1.1390    1.5580 h1        1 MOL      0.105794
     51 H23         3.5410    0.4390   -1.2600 hc        1 MOL      0.100498
     52 H24         3.9090    1.9350   -0.7580 hc        1 MOL      0.100498
     53 N5          3.8520   -1.0720    2.4270 n         1 MOL     -0.433671
     54 C17         3.4050   -2.3160    3.0450 c3        1 MOL     -0.030594
     55 C18         2.4690   -3.2890    2.2210 c         1 MOL      0.383572
     56 O9          2.5680   -4.4880    2.4700 o         1 MOL     -0.545706
     57 H25         3.5870   -0.2180    2.9010 hn        1 MOL      0.249168
     58 H26         3.0890   -2.1380    4.0720 h1        1 MOL      0.095099
     59 H27         4.2970   -2.9390    3.1990 h1        1 MOL      0.095099
     60 N6          1.6600   -2.8680    1.2500 n         1 MOL     -0.022217
     61 C19         0.7200   -3.5900    0.4490 c3        1 MOL     -0.081002
     62 C20         1.1640   -3.7060   -1.0230 c         1 MOL      0.377538
     63 O10         0.3700   -4.2310   -1.8480 o         1 MOL     -0.538414
     64 C21        -0.6010   -2.8670    0.6490 c3        1 MOL     -0.114113
     65 C22        -0.9880   -2.5200    2.0700 c         1 MOL      0.581804
     66 N7         -1.2080   -3.5680    2.8270 n         1 MOL     -0.681461
     67 O11        -0.9750   -1.3730    2.5260 o         1 MOL     -0.631406
     68 H28         1.7330   -1.8910    0.9980 hn        1 MOL      0.104600
     69 H29         0.5730   -4.6070    0.8220 h1        1 MOL      0.104980
     70 H30        -1.3240   -3.5850    0.2560 hc        1 MOL      0.035110
     71 H31        -0.6740   -1.9580    0.0420 hc        1 MOL      0.035110
     72 H32        -1.4630   -4.4170    2.3420 hn        1 MOL      0.365774
     73 H33        -1.5270   -3.3530    3.7590 hn        1 MOL      0.365774
     74 N8          2.2220   -3.0950   -1.3880 n         1 MOL     -0.039724
     75 C23         2.6360   -2.8080   -2.7590 c3        1 MOL     -0.312667
     76 C24         1.9140   -1.6030   -3.4540 c         1 MOL      0.597600
     77 O12         2.1080   -1.4100   -4.6170 o         1 MOL     -0.533602
     78 H34         2.8970   -2.8400   -0.6840 hn        1 MOL      0.161862
     79 H35         2.3020   -3.5870   -3.4360 h1        1 MOL      0.142998
     80 H36         3.7110   -2.7710   -2.9200 h1        1 MOL      0.142998
     81 N9          1.0300   -0.9120   -2.7470 n         1 MOL     -0.367990
     82 C25         0.1180    0.2320   -3.1840 c3        1 MOL     -0.039542
     83 C26        -1.0850    0.2150   -2.1900 c         1 MOL      0.655425
     84 O13        -0.8710    0.1930   -1.0160 o         1 MOL     -0.596376
     85 C27         0.9340    1.5540   -3.1750 c3        1 MOL     -0.278003
     86 C28         0.0450    2.7470   -3.3550 ca        1 MOL      0.156845
     87 C29        -0.4640    3.0330   -4.6060 ca        1 MOL     -0.214978
     88 C30         0.0400    3.7880   -2.4160 ca        1 MOL     -0.214978
     89 C31        -0.9370    4.2980   -5.0600 ca        1 MOL     -0.220684
     90 C32        -0.5350    5.0390   -2.8270 ca        1 MOL     -0.220684
     91 C33        -1.0080    5.3550   -4.1510 ca        1 MOL      0.334250
     92 O14        -1.4560    6.6180   -4.3820 oh        1 MOL     -0.475252
     93 H37         1.0070   -0.9910   -1.7370 hn        1 MOL      0.235208
     94 H38        -0.3460    0.0980   -4.1630 h1        1 MOL      0.070762
     95 H39         1.6660    1.4930   -3.9780 hc        1 MOL      0.152111
     96 H40         1.4580    1.6090   -2.2170 hc        1 MOL      0.152111
     97 H41        -0.2540    2.2780   -5.3620 ha        1 MOL      0.137544
     98 H42         0.5100    3.8120   -1.4330 ha        1 MOL      0.137544
     99 H43        -1.2850    4.4190   -6.0710 ha        1 MOL      0.143644
    100 H44        -0.5200    5.7760   -2.0370 ha        1 MOL      0.143644
    101 H45        -1.5640    7.1980   -3.6220 ho        1 MOL      0.370063
    102 N10        -2.3330    0.2500   -2.6620 n         1 MOL     -0.505619
    103 C34        -3.5860    0.3620   -1.9420 c3        1 MOL      0.060321
    104 C35        -4.0820   -1.0140   -1.2960 c         1 MOL      0.251044
    105 O15        -4.7970   -0.9350   -0.2430 o         1 MOL     -0.367184
    106 C36        -4.6430    0.9720   -2.8830 c3        1 MOL     -0.030998
    107 C37        -4.2200    2.2500   -3.6670 c3        1 MOL      0.033845
    108 C38        -6.0050    1.2970   -2.2500 c3        1 MOL     -0.668867
    109 C39        -3.7140    3.3970   -2.7070 c3        1 MOL     -0.027163
    110 H46        -2.4060    0.3540   -3.6700 hn        1 MOL      0.267223
    111 H47        -3.4780    1.0550   -1.1020 h1        1 MOL      0.094029
    112 H48        -4.9120    0.1180   -3.5020 hc        1 MOL      0.045960
    113 H49        -5.0670    2.6310   -4.2400 hc        1 MOL      0.042506
    114 H50        -3.4860    2.0900   -4.4530 hc        1 MOL      0.042506
    115 H51        -6.2270    0.4870   -1.5420 hc        1 MOL      0.198817
    116 H52        -6.1210    2.2300   -1.7090 hc        1 MOL      0.198817
    117 H53        -6.7740    1.3650   -3.0090 hc        1 MOL      0.198817
    118 H54        -2.6960    3.2780   -2.3200 hc        1 MOL      0.003256
    119 H55        -3.5500    4.3290   -3.2420 hc        1 MOL      0.003256
    120 H56        -4.4160    3.7570   -1.9540 hc        1 MOL      0.003256
    121 N11        -3.8260   -2.1820   -1.8880 n         1 MOL     -0.100453
    122 C40        -4.2340   -3.4590   -1.4130 c3        1 MOL     -0.200332
    123 C41        -5.8080   -3.6270   -1.4580 c         1 MOL      0.460172
    124 O16        -6.4760   -4.4080   -0.7380 o         1 MOL     -0.476747
    125 C42        -3.5420   -4.5720   -2.1960 c3        1 MOL      0.246850
    126 O17        -4.0440   -4.5100   -3.5560 oh        1 MOL     -0.661217
    127 H57        -3.2180   -2.1990   -2.6980 hn        1 MOL      0.235867
    128 H58        -3.8780   -3.5090   -0.3880 h1        1 MOL      0.066100
    129 H59        -3.7640   -5.5400   -1.7520 h1        1 MOL      0.040762
    130 H60        -2.4560   -4.4820   -2.2830 h1        1 MOL      0.040762
    131 H61        -3.5390   -5.1620   -4.0560 ho        1 MOL      0.427606
    132 N12        -6.4270   -2.7920   -2.3030 n         1 MOL     -0.206781
    133 C43        -7.8330   -2.6840   -2.4260 c3        1 MOL      0.048586
    134 C44        -8.6140   -2.3800   -1.1180 c         1 MOL      0.522743
    135 O18        -9.8160   -2.5670   -1.0680 o         1 MOL     -0.539820
    136 C45        -8.3670   -3.8580   -3.2470 c3        1 MOL     -0.319094
    137 H62        -5.8550   -2.1720   -2.8670 hn        1 MOL      0.202233
    138 H63        -7.9760   -1.7680   -3.0120 h1        1 MOL      0.065965
    139 H64        -7.7940   -4.0990   -4.1380 hc        1 MOL      0.098963
    140 H65        -8.2810   -4.7240   -2.5800 hc        1 MOL      0.098963
    141 H66        -9.4010   -3.8690   -3.5910 hc        1 MOL      0.098963
    142 N13        -7.9150   -1.8230   -0.1260 n         1 MOL     -0.370276
    143 C46        -8.5370   -1.5410    1.1880 c3        1 MOL      0.229001
    144 C47        -8.8450   -0.0260    1.4230 c         1 MOL      0.452303
    145 O19        -8.2630    0.8110    0.7190 o         1 MOL     -0.452415
    146 C48        -7.5430   -1.9400    2.2640 c3        1 MOL     -0.029956
    147 H67        -6.9790   -1.4930   -0.2870 hn        1 MOL      0.140688
    148 H68        -9.3840   -2.1750    1.4540 h1        1 MOL      0.018401
    149 H69        -6.5800   -1.4360    2.1340 hc        1 MOL      0.003862
    150 H70        -7.8550   -1.6120    3.2680 hc        1 MOL      0.003862
    151 H71        -7.4020   -3.0130    2.3240 hc        1 MOL      0.003862
    152 N14        -9.8140    0.2560    2.3300 n         1 MOL     -0.594939
    153 C49       -10.4050    1.6480    2.6000 c3        1 MOL     -0.078175
    154 C50       -10.9600    2.5250    1.4130 c         1 MOL      0.438219
    155 O20       -10.9240    3.7420    1.5030 o         1 MOL     -0.478334
    156 C51        -9.3920    2.3790    3.5680 c3        1 MOL      0.202938
    157 C52        -9.0000    1.7230    4.9900 c3        1 MOL     -0.226197
    158 C53        -7.8250    2.4600    5.6030 c         1 MOL      0.688417
    159 O21        -8.0770    3.3740    6.3760 o         1 MOL     -0.705422
    160 O22        -6.6720    2.1260    5.3080 o         1 MOL     -0.705422
    161 H72       -10.2180   -0.4870    2.8880 hn        1 MOL      0.342631
    162 H73       -11.2870    1.4140    3.1970 h1        1 MOL      0.079180
    163 H74        -9.7280    3.4100    3.7200 hc        1 MOL     -0.004225
    164 H75        -8.4580    2.4980    3.0280 hc        1 MOL     -0.004225
    165 H76        -8.8420    0.6490    5.0040 hc        1 MOL      0.023220
    166 H77        -9.8810    1.9200    5.6070 hc        1 MOL      0.023220
    167 N15       -11.3360    1.8700    0.2900 n         1 MOL     -0.290361
    168 C54       -11.7210    2.5720   -1.0080 c3        1 MOL     -0.112326
    169 H78       -11.2680    3.5630   -1.0330 h1        1 MOL      0.081337
    170 H79       -11.3620    1.9890   -1.8560 h1        1 MOL      0.081337
    171 H80       -12.8040    2.6660   -1.0630 h1        1 MOL      0.081337
    172 H81       -11.2730    0.8620    0.2890 hn        1 MOL      0.235254
    173 Ca1        -0.6430    1.2100    1.6410 Ca        1 MOL      1.824787
    174 O23        -3.0660    0.2520    1.6700 oh        1 MOL     -0.824910
    175 H82        -3.9130    0.4280    1.2520 ho        1 MOL      0.409475
    176 H83        -3.1760   -0.6120    2.0700 ho        1 MOL      0.409475
    177 O24         1.1700    0.7090    3.5890 oh        1 MOL     -0.824910
    178 H84         0.6890    0.3990    4.3600 ho        1 MOL      0.409475
    179 H85         2.0210    0.9810    3.9390 ho        1 MOL      0.409475
    180 O25        -1.8230    1.5400    4.0640 oh        1 MOL     -0.824910
    181 H86        -2.5550    2.0650    4.3730 ho        1 MOL      0.409475
    182 H87        -1.4480    1.1530    4.8480 ho        1 MOL      0.409475
    183 O26        -1.8780    3.2150    0.4290 oh        1 MOL     -0.824910
    184 H88        -2.0140    3.1680   -0.5180 ho        1 MOL      0.409475
    185 H89        -2.1600    4.0900    0.6750 ho        1 MOL      0.409475
    186 O27         0.0820    3.7020    2.6840 oh        1 MOL     -0.824910
    187 H90         0.5300    4.2960    2.0940 ho        1 MOL      0.409475
    188 H91        -0.3140    4.2650    3.3460 ho        1 MOL      0.409475
@<TRIPOS>BOND
     1    1    2 1   
     2    1    4 1   
     3    1    5 1   
     4    1    6 1   
     5    2    3 2   
     6    2    7 1   
     7    7    8 1   
     8    7   15 1   
     9    8    9 1   
    10    8   11 1   
    11    8   16 1   
    12    9   10 2   
    13    9   19 1   
    14   11   12 1   
    15   11   17 1   
    16   11   18 1   
    17   12   13 1   
    18   12   14 1   
    19   19   20 1   
    20   19   28 1   
    21   20   21 1   
    22   20   23 1   
    23   20   29 1   
    24   21   22 2   
    25   21   41 1   
    26   23   24 1   
    27   23   30 1   
    28   23   31 1   
    29   24   25 1   
    30   24   32 1   
    31   24   33 1   
    32   25   26 1   
    33   25   34 1   
    34   25   35 1   
    35   26   27 1   
    36   26   36 1   
    37   26   37 1   
    38   27   38 1   
    39   27   39 1   
    40   27   40 1   
    41   41   42 1   
    42   41   49 1   
    43   42   43 1   
    44   42   45 1   
    45   42   50 1   
    46   43   44 2   
    47   43   53 1   
    48   45   46 1   
    49   45   51 1   
    50   45   52 1   
    51   46   47 1   
    52   46   48 1   
    53   53   54 1   
    54   53   57 1   
    55   54   55 1   
    56   54   58 1   
    57   54   59 1   
    58   55   56 2   
    59   55   60 1   
    60   60   61 1   
    61   60   68 1   
    62   61   62 1   
    63   61   64 1   
    64   61   69 1   
    65   62   63 2   
    66   62   74 1   
    67   64   65 1   
    68   64   70 1   
    69   64   71 1   
    70   65   66 1   
    71   65   67 2   
    72   66   72 1   
    73   66   73 1   
    74   74   75 1   
    75   74   78 1   
    76   75   76 1   
    77   75   79 1   
    78   75   80 1   
    79   76   77 2   
    80   76   81 1   
    81   81   82 1   
    82   81   93 1   
    83   82   83 1   
    84   82   85 1   
    85   82   94 1   
    86   83   84 2   
    87   83  102 1   
    88   85   86 1   
    89   85   95 1   
    90   85   96 1   
    91   86   87 ar  
    92   86   88 ar  
    93   87   89 ar  
    94   87   97 1   
    95   88   90 ar  
    96   88   98 1   
    97   89   91 ar  
    98   89   99 1   
    99   90   91 ar  
   100   90  100 1   
   101   91   92 1   
   102   92  101 1   
   103  102  103 1   
   104  102  110 1   
   105  103  104 1   
   106  103  106 1   
   107  103  111 1   
   108  104  105 2   
   109  104  121 1   
   110  106  107 1   
   111  106  108 1   
   112  106  112 1   
   113  107  109 1   
   114  107  113 1   
   115  107  114 1   
   116  108  115 1   
   117  108  116 1   
   118  108  117 1   
   119  109  118 1   
   120  109  119 1   
   121  109  120 1   
   122  121  122 1   
   123  121  127 1   
   124  122  123 1   
   125  122  125 1   
   126  122  128 1   
   127  123  124 2   
   128  123  132 1   
   129  125  126 1   
   130  125  129 1   
   131  125  130 1   
   132  126  131 1   
   133  132  133 1   
   134  132  137 1   
   135  133  134 1   
   136  133  136 1   
   137  133  138 1   
   138  134  135 2   
   139  134  142 1   
   140  136  139 1   
   141  136  140 1   
   142  136  141 1   
   143  142  143 1   
   144  142  147 1   
   145  143  144 1   
   146  143  146 1   
   147  143  148 1   
   148  144  145 2   
   149  144  152 1   
   150  146  149 1   
   151  146  150 1   
   152  146  151 1   
   153  152  153 1   
   154  152  161 1   
   155  153  154 1   
   156  153  156 1   
   157  153  162 1   
   158  154  155 2   
   159  154  167 1   
   160  156  157 1   
   161  156  163 1   
   162  156  164 1   
   163  157  158 1   
   164  157  165 1   
   165  157  166 1   
   166  158  159 1   
   167  158  160 1   
   168  167  168 1   
   169  167  172 1   
   170  168  169 1   
   171  168  170 1   
   172  168  171 1   
   173  174  175 1   
   174  174  176 1   
   175  177  178 1   
   176  177  179 1   
   177  180  181 1   
   178  180  182 1   
   179  183  184 1   
   180  183  185 1   
   181  186  187 1   
   182  186  188 1   
@<TRIPOS>SUBSTRUCTURE
     1 MOL         1 TEMP              0 ****  ****    0 ROOT
