@<TRIPOS>MOLECULE
MOL
  192   187     1     0     0
SMALL
resp


@<TRIPOS>ATOM
      1 C1         -6.6940   -2.4650    3.1800 c3        1 MOL     -0.132617
      2 C2         -5.4010   -2.4240    2.2970 c         1 MOL      0.687466
      3 O1         -4.6850   -1.4300    2.3970 o         1 MOL     -0.526626
      4 H1         -7.5520   -2.1540    2.5820 hc        1 MOL      0.005050
      5 H2         -6.8540   -3.4800    3.5440 hc        1 MOL      0.005050
      6 H3         -6.5790   -1.7890    4.0270 hc        1 MOL      0.005050
      7 N1         -5.1590   -3.3850    1.4220 n         1 MOL     -0.855054
      8 C3         -3.9530   -3.4550    0.5820 c3        1 MOL      0.584309
      9 C4         -2.6000   -3.1760    1.3570 c         1 MOL      0.415897
     10 O2         -1.6510   -2.5090    0.8270 o         1 MOL     -0.543506
     11 C5         -4.1610   -2.6640   -0.7660 c3        1 MOL     -1.067013
     12 C6         -5.4000   -3.1260   -1.4520 c         1 MOL      1.064396
     13 O3         -6.3960   -2.3910   -1.5620 o         1 MOL     -0.709701
     14 O4         -5.2820   -4.2730   -1.9150 o         1 MOL     -0.709701
     15 H4         -5.8100   -4.1520    1.3300 hn        1 MOL      0.384277
     16 H5         -3.8710   -4.5080    0.3260 h1        1 MOL     -0.002266
     17 H6         -3.2830   -2.7210   -1.4070 hc        1 MOL      0.282216
     18 H7         -4.2510   -1.6060   -0.5250 hc        1 MOL      0.282216
     19 N2         -2.4200   -3.7480    2.5820 n         1 MOL     -0.629909
     20 C7         -1.0900   -3.7070    3.3230 c3        1 MOL      0.045694
     21 C8         -0.3150   -5.0690    3.2990 c         1 MOL      0.397612
     22 O5         -0.5390   -6.0300    4.0610 o         1 MOL     -0.588211
     23 C9         -1.3140   -3.0320    4.7270 c3        1 MOL      0.115817
     24 C10        -2.2570   -1.8070    4.6720 c3        1 MOL     -0.087831
     25 C11         0.0570   -2.4970    5.2250 c3        1 MOL     -0.114663
     26 C12        -2.4930   -0.8290    5.9860 c3        1 MOL     -0.231125
     27 H8         -3.1790   -4.2610    3.0090 hn        1 MOL      0.313908
     28 H9         -0.3840   -3.1270    2.7220 h1        1 MOL      0.555584
     29 H10        -1.6510   -3.7860    5.4480 hc        1 MOL     -0.046628
     30 H11        -3.2500   -2.1650    4.3950 hc        1 MOL      0.076174
     31 H12        -1.9360   -1.0600    3.9500 hc        1 MOL      0.076174
     32 H13         0.3300   -1.6250    4.6310 hc        1 MOL      0.010036
     33 H14         0.0650   -2.2140    6.2840 hc        1 MOL      0.010036
     34 H15         0.8260   -3.2630    5.1920 hc        1 MOL      0.010036
     35 H16        -2.9000    0.1280    5.6930 hc        1 MOL      0.058157
     36 H17        -3.2640   -1.3080    6.5870 hc        1 MOL      0.058157
     37 H18        -1.5670   -0.7280    6.5660 hc        1 MOL      0.058157
     38 N3          0.7230   -5.2060    2.5180 n         1 MOL     -0.320096
     39 C13         1.3110   -4.3750    1.4570 c3        1 MOL      0.031832
     40 C14         1.7150   -5.1740    0.2850 c         1 MOL      0.415317
     41 O6          2.3100   -6.2730    0.3350 o         1 MOL     -0.484819
     42 C15         2.3940   -3.5980    2.1890 c3        1 MOL     -0.005210
     43 C16         3.2920   -2.7150    1.3230 c         1 MOL      0.652482
     44 O7          4.4670   -3.1310    1.1460 o         1 MOL     -0.660770
     45 O8          2.9240   -1.6680    0.7600 o         1 MOL     -0.660770
     46 H19         1.1330   -6.1250    2.6040 hn        1 MOL      0.247148
     47 H20         0.5830   -3.6400    1.0960 h1        1 MOL     -0.094452
     48 H21         3.0180   -4.3320    2.7020 hc        1 MOL     -0.030593
     49 H22         1.9800   -2.9650    2.9700 hc        1 MOL     -0.030593
     50 N4          1.8010   -4.5400   -0.9030 n         1 MOL     -0.235357
     51 C17         2.3370   -5.0540   -2.1650 c3        1 MOL     -0.263516
     52 C18         3.8470   -4.9370   -2.3120 c         1 MOL      0.669463
     53 O9          4.5080   -5.9710   -2.4520 o         1 MOL     -0.574989
     54 H23         1.6790   -3.5390   -0.9230 hn        1 MOL      0.259937
     55 H24         1.8880   -4.4470   -2.9570 h1        1 MOL      0.104455
     56 H25         2.0030   -6.0880   -2.2830 h1        1 MOL      0.104455
     57 N5          4.4580   -3.7300   -2.1460 n         1 MOL     -0.439614
     58 C19         5.7270   -3.3070   -2.6830 c3        1 MOL     -0.047873
     59 C20         6.9020   -3.0110   -1.7590 c         1 MOL      0.480114
     60 O10         8.0730   -2.8940   -2.2040 o         1 MOL     -0.618663
     61 C21         5.5130   -2.1450   -3.7110 c3        1 MOL     -0.183808
     62 C22         4.6650   -1.0430   -3.1490 c         1 MOL      0.654834
     63 O11         5.1490   -0.2370   -2.2940 o         1 MOL     -0.656171
     64 O12         3.4750   -0.9270   -3.5570 o         1 MOL     -0.656171
     65 H26         3.8520   -3.0090   -1.7730 hn        1 MOL      0.336836
     66 H27         6.0900   -4.0330   -3.4130 h1        1 MOL      0.092072
     67 H28         5.0230   -2.4910   -4.6250 hc        1 MOL      0.035991
     68 H29         6.4920   -1.7570   -3.9960 hc        1 MOL      0.035991
     69 N6          6.6220   -2.7650   -0.5190 n         1 MOL     -0.195661
     70 C23         7.6130   -2.1960    0.4570 c3        1 MOL     -0.135036
     71 C24         7.9890   -0.6860    0.2900 c         1 MOL      0.704692
     72 O13         8.7970   -0.2700    1.0810 o         1 MOL     -0.604046
     73 H30         5.6530   -2.7200   -0.2500 hn        1 MOL      0.217742
     74 H31         8.5370   -2.7760    0.4810 h1        1 MOL      0.077611
     75 H32         7.1600   -2.3140    1.4480 h1        1 MOL      0.077611
     76 N7          7.5850    0.0330   -0.7940 n         1 MOL     -0.422178
     77 C25         7.8570    1.4670   -1.0400 c3        1 MOL      0.388039
     78 C26         7.6300    2.4630    0.1400 c         1 MOL      0.324948
     79 O14         8.3790    3.4870    0.2120 o         1 MOL     -0.548915
     80 C27         9.2430    1.6190   -1.6820 c3        1 MOL     -0.295463
     81 C28         9.5140    0.8970   -2.9830 c3        1 MOL      0.116609
     82 C29        10.7100    1.1630   -3.7850 c         1 MOL      0.588565
     83 N8         11.0770    0.3140   -4.7240 n         1 MOL     -0.743909
     84 O15        11.4210    2.1450   -3.5580 o         1 MOL     -0.574908
     85 H33         7.0350   -0.2820   -1.5770 hn        1 MOL      0.184369
     86 H34         7.1220    1.9420   -1.6970 h1        1 MOL      0.041996
     87 H35        10.0340    1.2850   -1.0060 hc        1 MOL      0.069113
     88 H36         9.2810    2.6470   -2.0360 hc        1 MOL      0.069113
     89 H37         8.6460    1.0620   -3.6120 hc        1 MOL     -0.009866
     90 H38         9.5250   -0.1820   -2.7800 hc        1 MOL     -0.009866
     91 H39        10.4040   -0.3800   -5.0240 hn        1 MOL      0.325506
     92 H40        11.8070    0.5400   -5.3810 hn        1 MOL      0.325506
     93 N9          6.7400    2.2180    1.0540 n         1 MOL     -0.248234
     94 C30         6.3670    2.9300    2.3440 c3        1 MOL     -0.069180
     95 C31         4.8660    3.1290    2.5790 c         1 MOL      0.491215
     96 O16         4.4380    3.6380    3.6050 o         1 MOL     -0.561642
     97 C32         7.0020    2.1960    3.6080 c3        1 MOL      0.249350
     98 C33         6.5940    0.7330    3.8070 c3        1 MOL     -0.198668
     99 C34         8.5070    2.2240    3.5560 c3        1 MOL     -0.198668
    100 H41         6.3210    1.3080    0.9140 hn        1 MOL      0.212291
    101 H42         6.8170    3.9290    2.3470 h1        1 MOL      0.100192
    102 H43         6.7160    2.7630    4.4960 hc        1 MOL     -0.030250
    103 H44         7.0860    0.4440    4.7370 hc        1 MOL      0.038054
    104 H45         5.5290    0.5860    3.9800 hc        1 MOL      0.038054
    105 H46         6.9640    0.1190    2.9880 hc        1 MOL      0.038054
    106 H47         8.8890    3.1970    3.2460 hc        1 MOL      0.038054
    107 H48         8.9400    2.0520    4.5430 hc        1 MOL      0.038054
    108 H49         8.8900    1.4780    2.8620 hc        1 MOL      0.038054
    109 N10         4.0600    2.5580    1.6950 n         1 MOL     -0.423926
    110 C35         2.6450    2.4300    1.9310 c3        1 MOL      0.494319
    111 C36         1.7410    2.5880    0.6840 c         1 MOL      0.367747
    112 O17         2.2990    2.6010   -0.4120 o         1 MOL     -0.522611
    113 C37         2.3300    1.1570    2.8000 c3        1 MOL     -0.252497
    114 C38         0.9840    0.6360    2.9750 c         1 MOL      0.429825
    115 N11         0.5870   -0.3860    2.2950 n         1 MOL     -0.321211
    116 O18         0.1680    1.2710    3.6900 o         1 MOL     -0.583770
    117 H50         4.4440    2.1470    0.8620 hn        1 MOL      0.204488
    118 H51         2.4060    3.3610    2.4470 h1        1 MOL     -0.027245
    119 H52         2.7530    1.5140    3.7390 hc        1 MOL      0.066951
    120 H53         2.9910    0.3740    2.4240 hc        1 MOL      0.066951
    121 H54         1.2030   -0.8800    1.6590 hn        1 MOL      0.199081
    122 H55        -0.4110   -0.5020    2.3070 hn        1 MOL      0.199081
    123 N12         0.4540    2.8150    0.8560 n         1 MOL     -0.368422
    124 C39        -0.5240    2.8200   -0.2470 c3        1 MOL      0.113033
    125 C40        -1.6720    3.8290    0.1220 c         1 MOL      0.490460
    126 O19        -1.8720    4.0630    1.3160 o         1 MOL     -0.535394
    127 C41        -0.9990    1.3970   -0.4490 c3        1 MOL     -0.064780
    128 C42        -1.5600    1.0410   -1.8470 ca        1 MOL      0.028242
    129 C43        -0.6750    0.6130   -2.8220 ca        1 MOL     -0.176222
    130 C44        -2.8910    1.1410   -2.0830 ca        1 MOL     -0.176222
    131 C45        -1.1770    0.2290   -4.1110 ca        1 MOL     -0.191025
    132 C46        -3.4390    0.7950   -3.3970 ca        1 MOL     -0.191025
    133 C47        -2.5540    0.3920   -4.4780 ca        1 MOL      0.189734
    134 O20        -2.9960   -0.0070   -5.7430 oh        1 MOL     -0.497034
    135 H56         0.0290    2.8060    1.7660 hn        1 MOL      0.245072
    136 H57        -0.0780    3.1710   -1.1830 h1        1 MOL      0.071136
    137 H58        -1.7420    1.0450    0.2550 hc        1 MOL      0.055062
    138 H59        -0.2170    0.6750   -0.2270 hc        1 MOL      0.055062
    139 H60         0.3880    0.4770   -2.6880 ha        1 MOL      0.189080
    140 H61        -3.6050    1.5470   -1.3770 ha        1 MOL      0.189080
    141 H62        -0.4990   -0.1630   -4.8540 ha        1 MOL      0.140317
    142 H63        -4.4980    0.9980   -3.4620 ha        1 MOL      0.140317
    143 H64        -3.9220    0.2090   -5.8880 ho        1 MOL      0.384621
    144 N13        -2.2190    4.5580   -0.8690 n         1 MOL     -0.527120
    145 C48        -3.3110    5.4600   -0.7630 c3        1 MOL      0.127781
    146 C49        -4.4100    5.0040   -1.6990 c         1 MOL      0.553113
    147 O21        -4.3790    5.2610   -2.8970 o         1 MOL     -0.568204
    148 C50        -2.8310    6.8920   -1.1140 c3        1 MOL     -0.009594
    149 C51        -2.0000    7.4050   -0.0780 c3        1 MOL     -0.114396
    150 C52        -1.6170    8.8860   -0.2650 c         1 MOL      0.642435
    151 O22        -0.9680    9.2130   -1.2560 o         1 MOL     -0.656038
    152 O23        -2.0950    9.6720    0.6280 o         1 MOL     -0.656038
    153 H65        -1.8360    4.3750   -1.7750 hn        1 MOL      0.312703
    154 H66        -3.6880    5.4620    0.2550 h1        1 MOL      0.116118
    155 H67        -3.6820    7.5490   -1.2730 hc        1 MOL      0.031088
    156 H68        -2.2270    6.8270   -2.0220 hc        1 MOL      0.031088
    157 H69        -1.0720    6.8670    0.1070 hc        1 MOL      0.027254
    158 H70        -2.5320    7.2890    0.8670 hc        1 MOL      0.027254
    159 N14        -5.4220    4.2940   -1.1980 n         1 MOL     -0.877719
    160 C53        -5.5110    3.6280    0.0900 c3        1 MOL      0.664141
    161 C54        -5.7150    4.6350    1.2060 c         1 MOL      0.390224
    162 O24        -6.0620    5.7970    0.9300 o         1 MOL     -0.526297
    163 C55        -6.6650    2.5500    0.0030 c3        1 MOL     -0.631384
    164 C56        -6.5280    1.5610   -1.1940 c3        1 MOL      0.439524
    165 C57        -7.6370    0.5710   -1.2680 c         1 MOL      0.536026
    166 O25        -7.9930    0.1180   -2.3710 o         1 MOL     -0.695792
    167 O26        -8.1390    0.0550   -0.2150 o         1 MOL     -0.695792
    168 H71        -6.2230    4.1620   -1.8000 hn        1 MOL      0.424043
    169 H72        -4.5260    3.1970    0.2950 h1        1 MOL     -0.112794
    170 H73        -7.6400    3.0350    0.0020 hc        1 MOL      0.100055
    171 H74        -6.6650    1.9830    0.9300 hc        1 MOL      0.100055
    172 H75        -5.6240    0.9630   -1.0430 hc        1 MOL     -0.086206
    173 H76        -6.5090    2.0220   -2.1810 hc        1 MOL     -0.086206
    174 N15        -5.5370    4.2420    2.4320 n         1 MOL     -0.253498
    175 C58        -5.5390    5.0070    3.7000 c3        1 MOL     -0.218179
    176 H77        -6.5440    5.3800    3.8970 h1        1 MOL      0.105408
    177 H78        -5.2260    4.3570    4.5180 h1        1 MOL      0.105408
    178 H79        -4.8490    5.8480    3.6190 h1        1 MOL      0.105408
    179 H80        -5.4210    3.2370    2.5010 hn        1 MOL      0.244208
    180 Ca1        -8.8940   -2.2360   -1.3500 Ca        1 MOL      1.656079
    181 O27        -7.6360   -5.1260   -0.8040 oh        1 MOL     -0.879121
    182 H81        -6.9280   -5.0200   -1.4300 ho        1 MOL      0.392959
    183 H82        -7.7710   -6.0770   -0.7530 ho        1 MOL      0.392959
    184 O28       -10.6300   -0.8010   -2.8980 oh        1 MOL     -0.879121
    185 H83       -11.2270   -1.2440   -3.5020 ho        1 MOL      0.392959
    186 H84       -10.7080    0.1190   -3.1120 ho        1 MOL      0.392959
    187 O29        -8.5450   -2.8180   -3.9000 oh        1 MOL     -0.879121
    188 H85        -9.2450   -3.2430   -4.4090 ho        1 MOL      0.392959
    189 H86        -7.9030   -2.5600   -4.5550 ho        1 MOL      0.392959
    190 O30       -10.6510   -4.2030   -1.1040 oh        1 MOL     -0.879121
    191 H87       -10.9530   -4.8220   -1.7600 ho        1 MOL      0.392959
    192 H88       -11.4310   -3.9910   -0.5920 ho        1 MOL      0.392959
@<TRIPOS>BOND
     1    1    2 1   
     2    1    4 1   
     3    1    5 1   
     4    1    6 1   
     5    2    3 2   
     6    2    7 1   
     7    7    8 1   
     8    7   15 1   
     9    8    9 1   
    10    8   11 1   
    11    8   16 1   
    12    9   10 2   
    13    9   19 1   
    14   11   12 1   
    15   11   17 1   
    16   11   18 1   
    17   12   13 1   
    18   12   14 1   
    19   19   20 1   
    20   19   27 1   
    21   20   21 1   
    22   20   23 1   
    23   20   28 1   
    24   21   22 2   
    25   21   38 1   
    26   23   24 1   
    27   23   25 1   
    28   23   29 1   
    29   24   26 1   
    30   24   30 1   
    31   24   31 1   
    32   25   32 1   
    33   25   33 1   
    34   25   34 1   
    35   26   35 1   
    36   26   36 1   
    37   26   37 1   
    38   38   39 1   
    39   38   46 1   
    40   39   40 1   
    41   39   42 1   
    42   39   47 1   
    43   40   41 2   
    44   40   50 1   
    45   42   43 1   
    46   42   48 1   
    47   42   49 1   
    48   43   44 1   
    49   43   45 1   
    50   50   51 1   
    51   50   54 1   
    52   51   52 1   
    53   51   55 1   
    54   51   56 1   
    55   52   53 2   
    56   52   57 1   
    57   57   58 1   
    58   57   65 1   
    59   58   59 1   
    60   58   61 1   
    61   58   66 1   
    62   59   60 2   
    63   59   69 1   
    64   61   62 1   
    65   61   67 1   
    66   61   68 1   
    67   62   63 1   
    68   62   64 1   
    69   69   70 1   
    70   69   73 1   
    71   70   71 1   
    72   70   74 1   
    73   70   75 1   
    74   71   72 2   
    75   71   76 1   
    76   76   77 1   
    77   76   85 1   
    78   77   78 1   
    79   77   80 1   
    80   77   86 1   
    81   78   79 2   
    82   78   93 1   
    83   80   81 1   
    84   80   87 1   
    85   80   88 1   
    86   81   82 1   
    87   81   89 1   
    88   81   90 1   
    89   82   83 1   
    90   82   84 2   
    91   83   91 1   
    92   83   92 1   
    93   93   94 1   
    94   93  100 1   
    95   94   95 1   
    96   94   97 1   
    97   94  101 1   
    98   95   96 2   
    99   95  109 1   
   100   97   98 1   
   101   97   99 1   
   102   97  102 1   
   103   98  103 1   
   104   98  104 1   
   105   98  105 1   
   106   99  106 1   
   107   99  107 1   
   108   99  108 1   
   109  109  110 1   
   110  109  117 1   
   111  110  111 1   
   112  110  113 1   
   113  110  118 1   
   114  111  112 2   
   115  111  123 1   
   116  113  114 1   
   117  113  119 1   
   118  113  120 1   
   119  114  115 1   
   120  114  116 2   
   121  115  121 1   
   122  115  122 1   
   123  123  124 1   
   124  123  135 1   
   125  124  125 1   
   126  124  127 1   
   127  124  136 1   
   128  125  126 2   
   129  125  144 1   
   130  127  128 1   
   131  127  137 1   
   132  127  138 1   
   133  128  129 ar  
   134  128  130 ar  
   135  129  131 ar  
   136  129  139 1   
   137  130  132 ar  
   138  130  140 1   
   139  131  133 ar  
   140  131  141 1   
   141  132  133 ar  
   142  132  142 1   
   143  133  134 1   
   144  134  143 1   
   145  144  145 1   
   146  144  153 1   
   147  145  146 1   
   148  145  148 1   
   149  145  154 1   
   150  146  147 2   
   151  146  159 1   
   152  148  149 1   
   153  148  155 1   
   154  148  156 1   
   155  149  150 1   
   156  149  157 1   
   157  149  158 1   
   158  150  151 1   
   159  150  152 1   
   160  159  160 1   
   161  159  168 1   
   162  160  161 1   
   163  160  163 1   
   164  160  169 1   
   165  161  162 2   
   166  161  174 1   
   167  163  164 1   
   168  163  170 1   
   169  163  171 1   
   170  164  165 1   
   171  164  172 1   
   172  164  173 1   
   173  165  166 1   
   174  165  167 1   
   175  174  175 1   
   176  174  179 1   
   177  175  176 1   
   178  175  177 1   
   179  175  178 1   
   180  181  182 1   
   181  181  183 1   
   182  184  185 1   
   183  184  186 1   
   184  187  188 1   
   185  187  189 1   
   186  190  191 1   
   187  190  192 1   
@<TRIPOS>SUBSTRUCTURE
     1 MOL         1 TEMP              0 ****  ****    0 ROOT
