@<TRIPOS>MOLECULE
MOL
  178   175     1     0     0
SMALL
resp


@<TRIPOS>ATOM
      1 C1          2.9410   -0.1160    5.3520 c3        1 MOL     -0.320836
      2 C2          3.8040    0.0770    4.0980 c         1 MOL      0.587167
      3 O1          3.4680    0.7540    3.0890 o         1 MOL     -0.580162
      4 H1          2.1290   -0.8100    5.1310 hc        1 MOL      0.071304
      5 H2          3.5550   -0.5200    6.1570 hc        1 MOL      0.071304
      6 H3          2.5250    0.8430    5.6590 hc        1 MOL      0.071304
      7 N1          4.9760   -0.4850    4.1270 n         1 MOL     -0.288649
      8 C3          6.0410   -0.5080    3.1540 c3        1 MOL      0.030628
      9 C4          6.1420   -1.7090    2.2580 c         1 MOL      0.434155
     10 O2          7.1230   -1.7840    1.5140 o         1 MOL     -0.490760
     11 C5          7.4240   -0.1920    3.7760 c3        1 MOL     -0.240673
     12 C6          7.4390    1.2470    4.4190 c         1 MOL      0.708137
     13 O3          7.0670    2.1220    3.6550 o         1 MOL     -0.723764
     14 O4          7.7460    1.3230    5.6450 o         1 MOL     -0.723764
     15 H4          5.1720   -1.0600    4.9440 hn        1 MOL      0.248413
     16 H5          5.8750    0.3980    2.5670 h1        1 MOL      0.128088
     17 H6          8.2630   -0.3350    3.0880 hc        1 MOL      0.025021
     18 H7          7.5000   -0.8460    4.6530 hc        1 MOL      0.025021
     19 N2          5.1770   -2.6090    2.3210 n         1 MOL     -0.349320
     20 C7          4.8290   -3.5570    1.2060 c3        1 MOL      0.076977
     21 C8          4.6010   -2.9530   -0.1760 c         1 MOL      0.656005
     22 O5          3.4550   -2.7530   -0.5240 o         1 MOL     -0.668066
     23 C9          5.6800   -4.8120    1.2290 c3        1 MOL     -0.298455
     24 H8          4.6090   -2.5020    3.1420 hn        1 MOL      0.185512
     25 H9          3.9000   -3.8650    1.6790 h1        1 MOL      0.111970
     26 H10         6.7140   -4.5420    0.9890 hc        1 MOL      0.071983
     27 H11         5.7520   -5.2400    2.2320 hc        1 MOL      0.071983
     28 H12         5.2930   -5.5220    0.4990 hc        1 MOL      0.071983
     29 N3          5.7300   -2.6160   -0.8020 n         1 MOL     -0.565729
     30 C10         5.9110   -2.1880   -2.1130 c3        1 MOL      0.434065
     31 C11         6.4290   -0.7080   -2.1680 c         1 MOL      0.408180
     32 O6          7.1720   -0.3440   -3.0590 o         1 MOL     -0.498018
     33 C12         6.7390   -3.2200   -2.9770 c3        1 MOL     -0.399950
     34 C13         8.1060   -3.6320   -2.4090 c         1 MOL      0.791852
     35 O7          8.2630   -4.8690   -2.2200 o         1 MOL     -0.738123
     36 O8          8.9320   -2.8270   -2.0180 o         1 MOL     -0.738123
     37 H13         6.5750   -2.8410   -0.3010 hn        1 MOL      0.367714
     38 H14         4.9600   -2.0700   -2.6420 h1        1 MOL     -0.037983
     39 H15         6.9610   -2.7560   -3.9410 hc        1 MOL      0.031399
     40 H16         6.0450   -4.0450   -3.1180 hc        1 MOL      0.031399
     41 N4          6.0810    0.0150   -1.1200 n         1 MOL     -0.190367
     42 C14         6.3270    1.4600   -1.0820 c3        1 MOL     -0.251757
     43 C15         5.2630    2.2390   -1.8290 c         1 MOL      0.704327
     44 O9          5.5500    3.0230   -2.7300 o         1 MOL     -0.587696
     45 H17         5.3860   -0.3290   -0.4610 hn        1 MOL      0.160867
     46 H18         7.2750    1.6390   -1.5860 h1        1 MOL      0.138190
     47 H19         6.3310    1.8200   -0.0560 h1        1 MOL      0.138190
     48 N5          4.0260    1.9610   -1.4300 n         1 MOL     -0.565703
     49 C16         2.8850    2.6700   -2.0680 c3        1 MOL      0.030323
     50 C17         2.5760    4.0370   -1.4430 c         1 MOL      0.656482
     51 O10         2.8360    4.2310   -0.2750 o         1 MOL     -0.519248
     52 C18         1.7420    1.6630   -2.1010 c3        1 MOL     -0.337065
     53 C19         1.8400    0.4650   -3.0470 c         1 MOL      0.572895
     54 N6          1.9760    0.6470   -4.3310 n         1 MOL     -0.642377
     55 O11         1.8740   -0.6920   -2.6240 o         1 MOL     -0.553603
     56 H20         3.7950    1.4030   -0.6250 hn        1 MOL      0.375261
     57 H21         3.1980    2.8020   -3.1010 h1        1 MOL      0.051516
     58 H22         0.8570    2.2130   -2.4470 hc        1 MOL      0.169697
     59 H23         1.5360    1.2830   -1.1050 hc        1 MOL      0.169697
     60 H24         1.6820    1.5380   -4.6990 hn        1 MOL      0.319576
     61 H25         1.9890   -0.1830   -4.9030 hn        1 MOL      0.319576
     62 N7          2.0080    4.9660   -2.2320 n         1 MOL     -0.548126
     63 C20         1.7710    6.3850   -1.8230 c3        1 MOL      0.111839
     64 C21         0.3470    6.8290   -1.9860 c         1 MOL      0.415119
     65 O12        -0.2830    6.6330   -3.0480 o         1 MOL     -0.503499
     66 H26         1.6510    4.5820   -3.1050 hn        1 MOL      0.282506
     67 H27         2.3770    7.1000   -2.3800 h1        1 MOL      0.056863
     68 H28         2.0930    6.5520   -0.7950 h1        1 MOL      0.056863
     69 N8         -0.2850    7.4370   -0.9900 n         1 MOL     -0.347879
     70 C22        -1.7940    7.7560   -0.9330 c3        1 MOL     -0.255770
     71 C23        -2.6310    6.5230   -0.3760 c         1 MOL      0.428976
     72 O13        -3.8790    6.5340   -0.2440 o         1 MOL     -0.551381
     73 C24        -1.9470    8.9320   -0.0070 c3        1 MOL      0.492875
     74 C25        -1.8950    8.6470    1.5620 c3        1 MOL     -0.459348
     75 O14        -1.0720    9.9270   -0.3190 oh        1 MOL     -0.626806
     76 H29         0.1540    7.7500   -0.1360 hn        1 MOL      0.241820
     77 H30        -2.0700    8.0310   -1.9530 h1        1 MOL      0.186472
     78 H31        -2.9380    9.3490   -0.1930 h1        1 MOL      0.035112
     79 H32        -0.1860    9.6860   -0.0390 ho        1 MOL      0.376913
     80 H33        -0.9730    8.1960    1.9270 hc        1 MOL      0.113997
     81 H34        -2.0410    9.5690    2.1290 hc        1 MOL      0.113997
     82 H35        -2.8410    8.2160    1.8920 hc        1 MOL      0.113997
     83 N9         -1.9580    5.3850   -0.1150 n         1 MOL     -0.084479
     84 C26        -2.5140    4.1950    0.5000 c3        1 MOL     -0.069071
     85 C27        -2.0300    2.9560   -0.1810 c         1 MOL      0.425977
     86 O15        -1.1590    2.8880   -1.0270 o         1 MOL     -0.490472
     87 C28        -2.1620    4.1540    2.0350 c3        1 MOL      0.122026
     88 C29        -0.6650    3.9670    2.2600 c3        1 MOL     -0.080961
     89 C30        -2.6860    5.4210    2.6880 c3        1 MOL     -0.055107
     90 C31        -0.3400    3.5400    3.6640 c3        1 MOL     -0.535458
     91 H36        -0.9510    5.4060   -0.2250 hn        1 MOL      0.110371
     92 H37        -3.5960    4.2670    0.4000 h1        1 MOL      0.086995
     93 H38        -2.6940    3.2540    2.3590 hc        1 MOL     -0.031476
     94 H39        -0.2020    4.9380    2.0860 hc        1 MOL      0.100660
     95 H40        -0.3580    3.1550    1.6070 hc        1 MOL      0.100660
     96 H41        -3.5850    5.8990    2.2810 hc        1 MOL      0.009873
     97 H42        -2.9530    5.2380    3.7310 hc        1 MOL      0.009873
     98 H43        -1.9040    6.1840    2.6740 hc        1 MOL      0.009873
     99 H44        -0.7240    4.3220    4.3160 hc        1 MOL      0.156064
    100 H45        -0.5800    2.5000    3.9030 hc        1 MOL      0.156064
    101 H46         0.7510    3.4830    3.6850 hc        1 MOL      0.156064
    102 N10        -2.6980    1.8350    0.1480 n         1 MOL     -0.398901
    103 C32        -2.3480    0.5380   -0.3910 c3        1 MOL      0.007085
    104 C33        -3.5540   -0.4220   -0.5290 c         1 MOL      0.441493
    105 O16        -3.4710   -1.6450   -0.4880 o         1 MOL     -0.363738
    106 C34        -1.1300   -0.0560    0.4780 c3        1 MOL     -0.245551
    107 C35        -0.3280   -1.0340   -0.3150 c         1 MOL      0.655402
    108 O17         0.7530   -1.4010    0.2310 o         1 MOL     -0.723841
    109 O18        -0.6760   -1.3570   -1.4630 o         1 MOL     -0.723841
    110 H47        -3.5640    1.8740    0.6670 hn        1 MOL      0.263593
    111 H48        -1.9680    0.7510   -1.3920 h1        1 MOL      0.104945
    112 H49        -1.4810   -0.5610    1.3770 hc        1 MOL      0.107762
    113 H50        -0.5340    0.7500    0.9150 hc        1 MOL      0.107762
    114 N11        -4.7470    0.1910   -0.7520 n         1 MOL     -0.399391
    115 C36        -5.9250   -0.6260   -1.0050 c3        1 MOL      0.184981
    116 C37        -6.3270   -1.6170    0.1110 c         1 MOL      0.256883
    117 O19        -6.3760   -1.2080    1.2680 o         1 MOL     -0.502814
    118 C38        -7.0040    0.3920   -1.3920 c3        1 MOL     -0.094964
    119 C39        -8.4290   -0.2040   -1.2820 ca        1 MOL     -0.095019
    120 C40        -9.0190   -0.8490   -2.3820 ca        1 MOL     -0.021484
    121 C41        -9.2400    0.1870   -0.1870 ca        1 MOL     -0.021484
    122 C42       -10.2700   -1.2970   -2.4160 ca        1 MOL     -0.160939
    123 C43       -10.6220   -0.2160   -0.2000 ca        1 MOL     -0.160939
    124 C44       -11.0140   -1.0150   -1.2680 ca        1 MOL     -0.093474
    125 H51        -4.8960    1.1870   -0.6990 hn        1 MOL      0.215711
    126 H52        -5.6200   -1.1810   -1.8860 h1        1 MOL      0.009119
    127 H53        -6.8740    0.7020   -2.4360 hc        1 MOL      0.068462
    128 H54        -6.8820    1.3320   -0.8680 hc        1 MOL      0.068462
    129 H55        -8.5110   -1.0080   -3.3160 ha        1 MOL      0.089045
    130 H56        -8.8630    0.8430    0.5890 ha        1 MOL      0.089045
    131 H57       -10.6960   -1.8080   -3.2680 ha        1 MOL      0.124180
    132 H58       -11.3540    0.0790    0.5410 ha        1 MOL      0.124180
    133 H59       -12.0040   -1.4470   -1.2160 ha        1 MOL      0.085224
    134 N12        -6.6610   -2.8350   -0.2360 n         1 MOL      0.036242
    135 C45        -7.0740   -3.8070    0.7900 c3        1 MOL      0.139613
    136 C46        -5.9620   -4.1390    1.8390 c         1 MOL      0.178436
    137 O20        -6.3360   -4.6050    2.9540 o         1 MOL     -0.487921
    138 C47        -7.5420   -5.0190   -0.0130 c3        1 MOL     -0.185692
    139 C48        -6.8750   -4.9430   -1.3720 c3        1 MOL      0.054501
    140 C49        -6.7720   -3.4460   -1.6090 c3        1 MOL     -0.141644
    141 H60        -7.9490   -3.5000    1.3670 h1        1 MOL      0.046648
    142 H61        -7.4860   -5.9710    0.5190 hc        1 MOL      0.074280
    143 H62        -8.5910   -4.7540   -0.1590 hc        1 MOL      0.074280
    144 H63        -5.8850   -5.4120   -1.4400 hc        1 MOL      0.009927
    145 H64        -7.5380   -5.3700   -2.1190 hc        1 MOL      0.009927
    146 H65        -5.8870   -3.2190   -2.2180 h1        1 MOL      0.055514
    147 H66        -7.6780   -3.1290   -2.1260 h1        1 MOL      0.055514
    148 N13        -4.6420   -3.8600    1.5880 n         1 MOL      0.056687
    149 C50        -3.5180   -4.0340    2.5470 c3        1 MOL     -0.379618
    150 C51        -3.5790   -2.9610    3.7160 c         1 MOL      0.515425
    151 O21        -3.0340   -3.1530    4.7740 o         1 MOL     -0.538660
    152 C52        -2.2620   -3.7540    1.7710 c3        1 MOL      0.308645
    153 C53        -1.9010   -4.9840    0.9350 c3        1 MOL     -0.346660
    154 C54        -0.7890   -4.6510   -0.0220 c         1 MOL      0.960844
    155 O22         0.3620   -4.5100    0.3650 o         1 MOL     -0.878877
    156 O23        -0.8820   -4.5800   -1.2370 o         1 MOL     -0.878877
    157 H67        -4.4790   -3.5280    0.6540 hn        1 MOL      0.122880
    158 H68        -3.5630   -5.0160    3.0240 h1        1 MOL      0.155591
    159 H69        -1.4570   -3.6400    2.5060 hc        1 MOL      0.002610
    160 H70        -2.3070   -2.8340    1.1850 hc        1 MOL      0.002610
    161 H71        -2.8150   -5.2340    0.3960 hc        1 MOL      0.056221
    162 H72        -1.5030   -5.8000    1.5270 hc        1 MOL      0.056221
    163 N14        -4.0310   -1.7330    3.4720 n         1 MOL     -0.178348
    164 C55        -4.2260   -0.6860    4.4450 c3        1 MOL     -0.276375
    165 H73        -3.3590   -0.0240    4.4440 h1        1 MOL      0.107069
    166 H74        -5.1180   -0.1140    4.1910 h1        1 MOL      0.107069
    167 H75        -4.3450   -1.1260    5.4350 h1        1 MOL      0.107069
    168 H76        -4.2640   -1.4680    2.5240 hn        1 MOL      0.208010
    169 Ca1         1.2380   -3.1600   -1.8360 Ca        1 MOL      1.804907
    170 O24        -0.6140   -3.0230   -4.0260 oh        1 MOL     -0.844479
    171 H77        -0.4740   -3.0730   -4.9690 ho        1 MOL      0.413738
    172 H78        -1.5220   -3.3030   -3.8960 ho        1 MOL      0.413738
    173 O25         2.7680   -5.3130   -1.8200 oh        1 MOL     -0.844479
    174 H79         3.2510   -5.9190   -2.3860 ho        1 MOL      0.413738
    175 H80         2.7670   -5.7270   -0.9650 ho        1 MOL      0.413738
    176 O26         2.3840   -3.4650   -4.5520 oh        1 MOL     -0.844479
    177 H81         3.1990   -3.1470   -4.9410 ho        1 MOL      0.413738
    178 H82         1.9920   -4.0140   -5.2380 ho        1 MOL      0.413738
@<TRIPOS>BOND
     1    1    2 1   
     2    1    4 1   
     3    1    5 1   
     4    1    6 1   
     5    2    3 2   
     6    2    7 1   
     7    7    8 1   
     8    7   15 1   
     9    8    9 1   
    10    8   11 1   
    11    8   16 1   
    12    9   10 2   
    13    9   19 1   
    14   11   12 1   
    15   11   17 1   
    16   11   18 1   
    17   12   13 1   
    18   12   14 1   
    19   19   20 1   
    20   19   24 1   
    21   20   21 1   
    22   20   23 1   
    23   20   25 1   
    24   21   22 2   
    25   21   29 1   
    26   23   26 1   
    27   23   27 1   
    28   23   28 1   
    29   29   30 1   
    30   29   37 1   
    31   30   31 1   
    32   30   33 1   
    33   30   38 1   
    34   31   32 2   
    35   31   41 1   
    36   33   34 1   
    37   33   39 1   
    38   33   40 1   
    39   34   35 1   
    40   34   36 1   
    41   41   42 1   
    42   41   45 1   
    43   42   43 1   
    44   42   46 1   
    45   42   47 1   
    46   43   44 2   
    47   43   48 1   
    48   48   49 1   
    49   48   56 1   
    50   49   50 1   
    51   49   52 1   
    52   49   57 1   
    53   50   51 2   
    54   50   62 1   
    55   52   53 1   
    56   52   58 1   
    57   52   59 1   
    58   53   54 1   
    59   53   55 2   
    60   54   60 1   
    61   54   61 1   
    62   62   63 1   
    63   62   66 1   
    64   63   64 1   
    65   63   67 1   
    66   63   68 1   
    67   64   65 2   
    68   64   69 1   
    69   69   70 1   
    70   69   76 1   
    71   70   71 1   
    72   70   73 1   
    73   70   77 1   
    74   71   72 2   
    75   71   83 1   
    76   73   74 1   
    77   73   75 1   
    78   73   78 1   
    79   74   80 1   
    80   74   81 1   
    81   74   82 1   
    82   75   79 1   
    83   83   84 1   
    84   83   91 1   
    85   84   85 1   
    86   84   87 1   
    87   84   92 1   
    88   85   86 2   
    89   85  102 1   
    90   87   88 1   
    91   87   89 1   
    92   87   93 1   
    93   88   90 1   
    94   88   94 1   
    95   88   95 1   
    96   89   96 1   
    97   89   97 1   
    98   89   98 1   
    99   90   99 1   
   100   90  100 1   
   101   90  101 1   
   102  102  103 1   
   103  102  110 1   
   104  103  104 1   
   105  103  106 1   
   106  103  111 1   
   107  104  105 2   
   108  104  114 1   
   109  106  107 1   
   110  106  112 1   
   111  106  113 1   
   112  107  108 1   
   113  107  109 1   
   114  114  115 1   
   115  114  125 1   
   116  115  116 1   
   117  115  118 1   
   118  115  126 1   
   119  116  117 2   
   120  116  134 1   
   121  118  119 1   
   122  118  127 1   
   123  118  128 1   
   124  119  120 ar  
   125  119  121 ar  
   126  120  122 ar  
   127  120  129 1   
   128  121  123 ar  
   129  121  130 1   
   130  122  124 ar  
   131  122  131 1   
   132  123  124 ar  
   133  123  132 1   
   134  124  133 1   
   135  134  135 1   
   136  134  140 1   
   137  135  136 1   
   138  135  138 1   
   139  135  141 1   
   140  136  137 2   
   141  136  148 1   
   142  138  139 1   
   143  138  142 1   
   144  138  143 1   
   145  139  140 1   
   146  139  144 1   
   147  139  145 1   
   148  140  146 1   
   149  140  147 1   
   150  148  149 1   
   151  148  157 1   
   152  149  150 1   
   153  149  152 1   
   154  149  158 1   
   155  150  151 2   
   156  150  163 1   
   157  152  153 1   
   158  152  159 1   
   159  152  160 1   
   160  153  154 1   
   161  153  161 1   
   162  153  162 1   
   163  154  155 1   
   164  154  156 1   
   165  163  164 1   
   166  163  168 1   
   167  164  165 1   
   168  164  166 1   
   169  164  167 1   
   170  170  171 1   
   171  170  172 1   
   172  173  174 1   
   173  173  175 1   
   174  176  177 1   
   175  176  178 1   
@<TRIPOS>SUBSTRUCTURE
     1 MOL         1 TEMP              0 ****  ****    0 ROOT
