@<TRIPOS>MOLECULE
MOL
  192   187     1     0     0
SMALL
resp


@<TRIPOS>ATOM
      1 C1         -9.0270    0.7720   -2.6010 c3        1 MOL     -0.607112
      2 C2         -8.1660    0.8500   -1.2460 c         1 MOL      0.744890
      3 O1         -7.1970    1.6230   -1.1610 o         1 MOL     -0.649760
      4 H1         -8.5800    0.0400   -3.2730 hc        1 MOL      0.153043
      5 H2        -10.0480    0.4730   -2.3650 hc        1 MOL      0.153043
      6 H3         -9.0360    1.7490   -3.0830 hc        1 MOL      0.153043
      7 N1         -8.4160   -0.0510   -0.3240 n         1 MOL     -0.402392
      8 C3         -7.8440   -0.1980    1.0330 c3        1 MOL     -0.004590
      9 C4         -7.0540   -1.5520    1.2420 c         1 MOL      0.494258
     10 O2         -6.8990   -1.9510    2.4120 o         1 MOL     -0.458085
     11 C5         -8.9420    0.0480    2.0630 c3        1 MOL     -0.361483
     12 C6        -10.1210   -1.0220    1.9150 c         1 MOL      0.733714
     13 O3        -11.1730   -0.7060    2.6120 o         1 MOL     -0.663379
     14 O4        -10.0120   -2.1470    1.3870 o         1 MOL     -0.663379
     15 H4         -9.2830   -0.5450   -0.5090 hn        1 MOL      0.193914
     16 H5         -7.0480    0.5450    1.1490 h1        1 MOL      0.130460
     17 H6         -9.2650    1.0780    1.9520 hc        1 MOL      0.120279
     18 H7         -8.5390   -0.1270    3.0630 hc        1 MOL      0.120279
     19 N2         -6.5550   -2.2090    0.1540 n         1 MOL     -0.359525
     20 C7         -5.9960   -3.5920    0.1250 c3        1 MOL      0.028383
     21 C8         -4.6440   -3.8430    0.7540 c         1 MOL      0.480251
     22 O5         -4.4360   -4.8160    1.4480 o         1 MOL     -0.523217
     23 C9         -6.2230   -4.2180   -1.2120 c3        1 MOL     -0.077004
     24 C10        -7.6800   -4.2790   -1.6970 c3        1 MOL      0.059549
     25 C11        -7.8700   -4.9640   -3.0440 c3        1 MOL      0.048798
     26 C12        -9.2100   -4.4850   -3.5880 c3        1 MOL      0.157848
     27 N3         -9.7640   -5.4620   -4.5450 n4        1 MOL     -0.336449
     28 H8         -6.3830   -1.5890   -0.6250 hn        1 MOL      0.188980
     29 H9         -6.6430   -4.0800    0.8540 h1        1 MOL      0.123803
     30 H10        -5.8040   -5.2170   -1.0870 hc        1 MOL      0.026204
     31 H11        -5.6040   -3.7590   -1.9920 hc        1 MOL      0.026204
     32 H12        -8.0550   -3.2530   -1.7570 hc        1 MOL      0.019310
     33 H13        -8.2390   -4.8010   -0.9210 hc        1 MOL      0.019310
     34 H14        -7.7880   -6.0510   -2.9950 hc        1 MOL     -0.011804
     35 H15        -7.1170   -4.6220   -3.7640 hc        1 MOL     -0.011804
     36 H16        -9.0420   -3.4670   -3.9540 hx        1 MOL      0.030677
     37 H17        -9.9030   -4.3660   -2.7620 hx        1 MOL      0.030677
     38 H18       -10.5070   -5.1290   -5.1490 hn        1 MOL      0.279909
     39 H19        -9.1060   -5.7760   -5.2410 hn        1 MOL      0.279909
     40 H20       -10.1320   -6.2390   -4.0270 hn        1 MOL      0.279909
     41 N4         -3.6380   -2.9260    0.5700 n         1 MOL     -0.413395
     42 C13        -3.5140   -1.8250   -0.3750 c3        1 MOL      0.061864
     43 C14        -3.4670   -0.4340    0.3340 c         1 MOL      0.169165
     44 O6         -3.3600   -0.3260    1.6090 o         1 MOL     -0.380844
     45 C15        -2.3710   -1.9370   -1.3770 c3        1 MOL     -0.103118
     46 C16        -0.9550   -1.9700   -0.7610 c         1 MOL      0.586920
     47 O7         -0.7960   -1.3940    0.3350 o         1 MOL     -0.582388
     48 O8         -0.0530   -2.6360   -1.3390 o         1 MOL     -0.582388
     49 H21        -2.8400   -3.2050    1.1140 hn        1 MOL      0.338696
     50 H22        -4.3600   -1.7590   -1.0580 h1        1 MOL      0.079855
     51 H23        -2.4890   -1.1730   -2.1600 hc        1 MOL      0.026889
     52 H24        -2.5270   -2.8510   -1.9430 hc        1 MOL      0.026889
     53 N5         -3.6510    0.6000   -0.4690 n         1 MOL     -0.185148
     54 C17        -3.9650    1.9050    0.1720 c3        1 MOL     -0.151420
     55 C18        -2.8010    2.5580    0.9160 c         1 MOL      0.639741
     56 O9         -1.6610    2.0600    0.9160 o         1 MOL     -0.600591
     57 H25        -3.7960    0.5780   -1.4630 hn        1 MOL      0.237121
     58 H26        -4.8230    1.8200    0.8340 h1        1 MOL      0.107508
     59 H27        -4.2290    2.5690   -0.6590 h1        1 MOL      0.107508
     60 N6         -3.0190    3.6730    1.5680 n         1 MOL     -0.560313
     61 C19        -1.9870    4.5290    2.2470 c3        1 MOL      0.524847
     62 C20        -2.5400    6.0080    2.0830 c         1 MOL      0.276900
     63 O10        -3.7550    6.1700    2.2410 o         1 MOL     -0.496813
     64 C21        -1.5640    4.2550    3.7110 c3        1 MOL     -0.164957
     65 C22        -1.0100    2.8690    3.7550 c         1 MOL      0.602641
     66 O11        -1.6290    2.0320    4.4310 o         1 MOL     -0.652327
     67 O12         0.0550    2.6330    3.1390 o         1 MOL     -0.652327
     68 H28        -3.9650    4.0070    1.6070 hn        1 MOL      0.285782
     69 H29        -1.0660    4.5410    1.6590 h1        1 MOL     -0.073685
     70 H30        -2.4690    4.4050    4.3000 hc        1 MOL      0.036475
     71 H31        -0.7290    4.9360    3.9200 hc        1 MOL      0.036475
     72 N7         -1.7000    6.9980    1.9000 n         1 MOL     -0.307276
     73 C23        -0.2230    7.0850    2.0040 c3        1 MOL     -0.206920
     74 C24         0.4440    6.4930    0.7100 c         1 MOL      0.652387
     75 O13        -0.0190    6.8180   -0.3800 o         1 MOL     -0.509364
     76 H32        -2.1420    7.8210    1.5210 hn        1 MOL      0.299826
     77 H33         0.2590    6.6790    2.8870 h1        1 MOL      0.112420
     78 H34         0.0840    8.1300    2.0230 h1        1 MOL      0.112420
     79 N8          1.5680    5.7470    0.8540 n         1 MOL     -0.594979
     80 C25         2.2080    4.9440   -0.1750 c3        1 MOL     -0.038267
     81 C26         1.3390    3.7410   -0.5580 c         1 MOL      0.875017
     82 O14         0.8980    2.9450    0.2140 o         1 MOL     -0.740425
     83 C27         3.6410    4.5390    0.2700 c3        1 MOL      0.442081
     84 C28         4.5510    5.7940    0.3060 c3        1 MOL     -0.220087
     85 O15         4.2450    3.5510   -0.4800 oh        1 MOL     -0.644652
     86 H35         1.9100    5.6410    1.7930 hn        1 MOL      0.298769
     87 H36         2.3040    5.5590   -1.0710 h1        1 MOL      0.056459
     88 H37         3.5850    4.1710    1.2920 h1        1 MOL     -0.031853
     89 H38         4.8080    3.1310    0.1630 ho        1 MOL      0.394791
     90 H39         5.4780    5.5870    0.8540 hc        1 MOL      0.055119
     91 H40         4.9070    6.0530   -0.6860 hc        1 MOL      0.055119
     92 H41         4.1350    6.6830    0.7750 hc        1 MOL      0.055119
     93 N9          1.1340    3.6040   -1.8980 n         1 MOL     -0.623376
     94 C29         0.5030    2.5760   -2.6990 c3        1 MOL      0.005479
     95 C30         0.9860    1.1360   -2.3680 c         1 MOL      0.609542
     96 O16         0.5920    0.5820   -1.3760 o         1 MOL     -0.664302
     97 C31        -1.0340    2.6810   -2.5870 c3        1 MOL     -0.005204
     98 C32        -1.4380    4.0020   -3.2250 c3        1 MOL      0.080542
     99 C33        -1.8270    1.5630   -3.2480 c3        1 MOL     -0.591097
    100 C34        -2.5020    4.7230   -2.4010 c3        1 MOL     -0.100200
    101 H42         1.6470    4.2540   -2.4840 hn        1 MOL      0.317704
    102 H43         0.7240    2.7420   -3.7440 h1        1 MOL      0.044961
    103 H44        -1.2660    2.7380   -1.5240 hc        1 MOL      0.164828
    104 H45        -1.8200    3.8600   -4.2400 hc        1 MOL     -0.003165
    105 H46        -0.6550    4.7480   -3.3200 hc        1 MOL     -0.003165
    106 H47        -2.9050    1.7290   -3.2170 hc        1 MOL      0.159711
    107 H48        -1.4500    1.5090   -4.2690 hc        1 MOL      0.159711
    108 H49        -1.6210    0.6040   -2.7850 hc        1 MOL      0.159711
    109 H50        -1.9860    5.3750   -1.7010 hc        1 MOL      0.019012
    110 H51        -3.0080    5.3790   -3.1030 hc        1 MOL      0.019012
    111 H52        -3.2110    4.0230   -1.9710 hc        1 MOL      0.019012
    112 N10         1.9930    0.6460   -3.1340 n         1 MOL     -0.313550
    113 C35         2.3910   -0.7390   -3.0280 c3        1 MOL     -0.129465
    114 C36         3.8920   -0.9560   -3.2290 c         1 MOL      0.468914
    115 O17         4.3570   -2.0750   -3.3220 o         1 MOL     -0.550793
    116 C37         1.6430   -1.6490   -4.0290 c3        1 MOL      0.352639
    117 C38         1.7810   -1.2660   -5.5480 c3        1 MOL     -0.146906
    118 O18         0.3050   -1.6790   -3.7680 oh        1 MOL     -0.589107
    119 H53         2.4340    1.2270   -3.8330 hn        1 MOL      0.242796
    120 H54         2.2370   -1.1000   -2.0170 h1        1 MOL      0.160950
    121 H55         2.0000   -2.6720   -3.9830 h1        1 MOL      0.018034
    122 H56         0.2020   -1.9290   -2.8440 ho        1 MOL      0.322273
    123 H57         1.3610   -1.9840   -6.2380 hc        1 MOL      0.028981
    124 H58         1.3730   -0.2810   -5.7870 hc        1 MOL      0.028981
    125 H59         2.7810   -1.2010   -5.9760 hc        1 MOL      0.028981
    126 N11         4.7080    0.0880   -3.2280 n         1 MOL     -0.354362
    127 C39         6.2040   -0.1150   -3.1460 c3        1 MOL      0.092618
    128 C40         6.5510   -0.6260   -1.7100 c         1 MOL      0.484697
    129 O19         6.7070    0.2090   -0.7980 o         1 MOL     -0.548704
    130 C41         6.8770    1.2010   -3.5360 c3        1 MOL      0.474282
    131 C42         8.3400    1.0430   -3.7270 c3        1 MOL     -0.497251
    132 O20         6.3260    1.5400   -4.6930 oh        1 MOL     -0.649477
    133 H60         4.3130    0.9860   -2.9850 hn        1 MOL      0.224482
    134 H61         6.5610   -0.8810   -3.8360 h1        1 MOL      0.073864
    135 H62         6.7360    2.0480   -2.8570 h1        1 MOL     -0.024227
    136 H63         6.8300    2.3060   -4.9970 ho        1 MOL      0.408254
    137 H64         8.8250    0.8380   -2.7740 hc        1 MOL      0.113175
    138 H65         8.6760    0.4270   -4.5660 hc        1 MOL      0.113175
    139 H66         8.6820    2.0410   -4.0370 hc        1 MOL      0.113175
    140 N12         6.6140   -1.9920   -1.4890 n         1 MOL     -0.714792
    141 C43         6.5520   -2.5440   -0.1290 c3        1 MOL      0.700368
    142 C44         5.3000   -2.1230    0.5870 c         1 MOL      0.213772
    143 O21         4.6040   -1.1770    0.2840 o         1 MOL     -0.348164
    144 C45         7.9350   -2.2310    0.6120 c3        1 MOL     -0.554613
    145 C46         9.1380   -2.5820   -0.1930 c3        1 MOL      0.091672
    146 C47        10.3960   -2.5420    0.6810 c3        1 MOL      0.065407
    147 C48        11.6430   -2.3950   -0.2140 c3        1 MOL     -0.066181
    148 N13        12.7420   -1.8340    0.5800 n4        1 MOL     -0.020162
    149 H67         6.3260   -2.5960   -2.2450 hn        1 MOL      0.338507
    150 H68         6.5930   -3.6230   -0.2380 h1        1 MOL     -0.044830
    151 H69         7.9490   -2.8560    1.5030 hc        1 MOL      0.145524
    152 H70         7.9900   -1.1890    0.9010 hc        1 MOL      0.145524
    153 H71         9.1390   -1.9030   -1.0460 hc        1 MOL      0.018660
    154 H72         9.0030   -3.5630   -0.6530 hc        1 MOL      0.018660
    155 H73        10.4790   -3.4430    1.2800 hc        1 MOL      0.017774
    156 H74        10.3720   -1.7040    1.3840 hc        1 MOL      0.017774
    157 H75        11.3970   -1.6120   -0.9310 hx        1 MOL      0.075482
    158 H76        12.0380   -3.3250   -0.6130 hx        1 MOL      0.075482
    159 H77        13.0110   -2.4980    1.3000 hn        1 MOL      0.179254
    160 H78        13.5560   -1.7760   -0.0080 hn        1 MOL      0.179254
    161 H79        12.5420   -0.9720    1.0730 hn        1 MOL      0.179254
    162 N14         4.9350   -2.9230    1.5540 n         1 MOL     -0.404605
    163 C49         3.7980   -2.7200    2.4260 c3        1 MOL      0.071570
    164 C50         2.4680   -2.4600    1.7110 c         1 MOL      0.334424
    165 O22         1.7280   -1.5760    2.0820 o         1 MOL     -0.555595
    166 C51         3.6460   -3.8180    3.5260 c3        1 MOL      0.117319
    167 C52         4.8990   -3.8910    4.4710 c3        1 MOL     -0.285466
    168 C53         4.9360   -4.9660    5.5150 c         1 MOL      0.746898
    169 O23         4.5750   -4.6430    6.6400 o         1 MOL     -0.648343
    170 O24         5.2820   -6.1680    5.2910 o         1 MOL     -0.648343
    171 H80         5.6190   -3.6380    1.7960 hn        1 MOL      0.266628
    172 H81         4.0280   -1.8830    3.1020 h1        1 MOL      0.095352
    173 H82         3.5100   -4.7740    3.0210 hc        1 MOL      0.032583
    174 H83         2.7420   -3.7960    4.1310 hc        1 MOL      0.032583
    175 H84         4.9820   -2.9240    4.9730 hc        1 MOL      0.022338
    176 H85         5.8370   -4.0030    3.9360 hc        1 MOL      0.022338
    177 N15         2.1130   -3.1590    0.5990 n         1 MOL     -0.108402
    178 C54         2.6640   -4.4410    0.1140 c3        1 MOL     -0.100071
    179 H86         3.6510   -4.2720   -0.3180 h1        1 MOL      0.044007
    180 H87         2.7470   -5.1390    0.9470 h1        1 MOL      0.044007
    181 H88         2.0020   -4.8570   -0.6450 h1        1 MOL      0.044007
    182 H89         1.3000   -2.7990    0.1140 hn        1 MOL      0.186852
    183 Ca1         0.5250    0.5900    1.4170 Ca        1 MOL      1.873848
    184 O25        -0.9220   -0.3920    3.3690 oh        1 MOL     -0.893907
    185 H90        -1.0360    0.3520    3.9520 ho        1 MOL      0.410183
    186 H91        -1.7480   -0.8800    3.4260 ho        1 MOL      0.410183
    187 O26         2.0760    0.7280    3.4640 oh        1 MOL     -0.893907
    188 H92         1.6170    1.3180    4.0560 ho        1 MOL      0.410183
    189 H93         2.5380    0.1100    4.0390 ho        1 MOL      0.410183
    190 O27         3.0100    0.8590    0.8090 oh        1 MOL     -0.893907
    191 H94         3.5610    1.6440    0.8250 ho        1 MOL      0.410183
    192 H95         3.6300    0.1370    0.9190 ho        1 MOL      0.410183
@<TRIPOS>BOND
     1    1    2 1   
     2    1    4 1   
     3    1    5 1   
     4    1    6 1   
     5    2    3 2   
     6    2    7 1   
     7    7    8 1   
     8    7   15 1   
     9    8    9 1   
    10    8   11 1   
    11    8   16 1   
    12    9   10 2   
    13    9   19 1   
    14   11   12 1   
    15   11   17 1   
    16   11   18 1   
    17   12   13 1   
    18   12   14 1   
    19   19   20 1   
    20   19   28 1   
    21   20   21 1   
    22   20   23 1   
    23   20   29 1   
    24   21   22 2   
    25   21   41 1   
    26   23   24 1   
    27   23   30 1   
    28   23   31 1   
    29   24   25 1   
    30   24   32 1   
    31   24   33 1   
    32   25   26 1   
    33   25   34 1   
    34   25   35 1   
    35   26   27 1   
    36   26   36 1   
    37   26   37 1   
    38   27   38 1   
    39   27   39 1   
    40   27   40 1   
    41   41   42 1   
    42   41   49 1   
    43   42   43 1   
    44   42   45 1   
    45   42   50 1   
    46   43   44 2   
    47   43   53 1   
    48   45   46 1   
    49   45   51 1   
    50   45   52 1   
    51   46   47 1   
    52   46   48 1   
    53   53   54 1   
    54   53   57 1   
    55   54   55 1   
    56   54   58 1   
    57   54   59 1   
    58   55   56 2   
    59   55   60 1   
    60   60   61 1   
    61   60   68 1   
    62   61   62 1   
    63   61   64 1   
    64   61   69 1   
    65   62   63 2   
    66   62   72 1   
    67   64   65 1   
    68   64   70 1   
    69   64   71 1   
    70   65   66 1   
    71   65   67 1   
    72   72   73 1   
    73   72   76 1   
    74   73   74 1   
    75   73   77 1   
    76   73   78 1   
    77   74   75 2   
    78   74   79 1   
    79   79   80 1   
    80   79   86 1   
    81   80   81 1   
    82   80   83 1   
    83   80   87 1   
    84   81   82 2   
    85   81   93 1   
    86   83   84 1   
    87   83   85 1   
    88   83   88 1   
    89   84   90 1   
    90   84   91 1   
    91   84   92 1   
    92   85   89 1   
    93   93   94 1   
    94   93  101 1   
    95   94   95 1   
    96   94   97 1   
    97   94  102 1   
    98   95   96 2   
    99   95  112 1   
   100   97   98 1   
   101   97   99 1   
   102   97  103 1   
   103   98  100 1   
   104   98  104 1   
   105   98  105 1   
   106   99  106 1   
   107   99  107 1   
   108   99  108 1   
   109  100  109 1   
   110  100  110 1   
   111  100  111 1   
   112  112  113 1   
   113  112  119 1   
   114  113  114 1   
   115  113  116 1   
   116  113  120 1   
   117  114  115 2   
   118  114  126 1   
   119  116  117 1   
   120  116  118 1   
   121  116  121 1   
   122  117  123 1   
   123  117  124 1   
   124  117  125 1   
   125  118  122 1   
   126  126  127 1   
   127  126  133 1   
   128  127  128 1   
   129  127  130 1   
   130  127  134 1   
   131  128  129 2   
   132  128  140 1   
   133  130  131 1   
   134  130  132 1   
   135  130  135 1   
   136  131  137 1   
   137  131  138 1   
   138  131  139 1   
   139  132  136 1   
   140  140  141 1   
   141  140  149 1   
   142  141  142 1   
   143  141  144 1   
   144  141  150 1   
   145  142  143 2   
   146  142  162 1   
   147  144  145 1   
   148  144  151 1   
   149  144  152 1   
   150  145  146 1   
   151  145  153 1   
   152  145  154 1   
   153  146  147 1   
   154  146  155 1   
   155  146  156 1   
   156  147  148 1   
   157  147  157 1   
   158  147  158 1   
   159  148  159 1   
   160  148  160 1   
   161  148  161 1   
   162  162  163 1   
   163  162  171 1   
   164  163  164 1   
   165  163  166 1   
   166  163  172 1   
   167  164  165 2   
   168  164  177 1   
   169  166  167 1   
   170  166  173 1   
   171  166  174 1   
   172  167  168 1   
   173  167  175 1   
   174  167  176 1   
   175  168  169 1   
   176  168  170 1   
   177  177  178 1   
   178  177  182 1   
   179  178  179 1   
   180  178  180 1   
   181  178  181 1   
   182  184  185 1   
   183  184  186 1   
   184  187  188 1   
   185  187  189 1   
   186  190  191 1   
   187  190  192 1   
@<TRIPOS>SUBSTRUCTURE
     1 MOL         1 TEMP              0 ****  ****    0 ROOT
