@<TRIPOS>MOLECULE
MOL
  181   177     1     0     0
SMALL
resp


@<TRIPOS>ATOM
      1 C1         11.9990   -4.6270    2.7200 c3        1 MOL     -0.232220
      2 C2         10.6260   -4.7100    2.0350 c         1 MOL      0.567893
      3 O1          9.6850   -5.2820    2.6180 o         1 MOL     -0.517936
      4 H1         12.5080   -3.7160    2.4050 hc        1 MOL      0.059504
      5 H2         11.8660   -4.6120    3.8020 hc        1 MOL      0.059504
      6 H3         12.5990   -5.4920    2.4400 hc        1 MOL      0.059504
      7 N1         10.2980   -3.9370    0.9420 n         1 MOL     -0.458737
      8 C3         11.2130   -3.1190    0.1270 c3        1 MOL      0.126740
      9 C4         10.9110   -3.1900   -1.4060 c         1 MOL      0.387207
     10 O2         11.6250   -2.5100   -2.2100 o         1 MOL     -0.543646
     11 C5         11.2610   -1.6910    0.5990 c3        1 MOL     -0.104154
     12 C6          9.9170   -1.0940    0.7000 c         1 MOL      0.782043
     13 O3          9.6510   -0.2950    1.6450 o         1 MOL     -0.780392
     14 O4          9.0860   -1.2860   -0.1930 o         1 MOL     -0.780392
     15 H4          9.3270   -3.6910    0.8470 hn        1 MOL      0.319372
     16 H5         12.2020   -3.5810    0.0810 h1        1 MOL      0.034828
     17 H6         12.0320   -1.0530    0.1510 hc        1 MOL      0.015056
     18 H7         11.6120   -1.8850    1.6200 hc        1 MOL      0.015056
     19 N2          9.7860   -3.8550   -1.6990 n         1 MOL     -0.443846
     20 C7          9.1790   -3.7150   -2.9830 c3        1 MOL      0.651406
     21 C8          7.6740   -3.6280   -2.8570 c         1 MOL      0.290336
     22 O5          6.9930   -4.3260   -3.5410 o         1 MOL     -0.519543
     23 C9          9.6820   -4.7270   -4.0470 c3        1 MOL     -0.402092
     24 H8          9.3610   -4.4690   -1.0090 hn        1 MOL      0.205489
     25 H9          9.4990   -2.8020   -3.4960 h1        1 MOL     -0.058380
     26 H10        10.7500   -4.5040   -4.1290 hc        1 MOL      0.074693
     27 H11         9.4410   -5.7610   -3.7870 hc        1 MOL      0.074693
     28 H12         9.1560   -4.4240   -4.9530 hc        1 MOL      0.074693
     29 N3          7.2160   -2.8560   -1.8630 n         1 MOL     -0.135395
     30 C10         5.8470   -2.4090   -1.6260 c3        1 MOL     -0.016880
     31 C11         5.6300   -0.8260   -1.6820 c         1 MOL      0.271732
     32 O6          6.6060   -0.1090   -1.4570 o         1 MOL     -0.398637
     33 C12         5.3660   -2.9640   -0.2560 c3        1 MOL     -0.318366
     34 C13         6.3440   -2.6760    0.8310 c         1 MOL      0.766220
     35 O7          6.8630   -3.6550    1.4560 o         1 MOL     -0.688362
     36 O8          6.5180   -1.5200    1.3330 o         1 MOL     -0.688362
     37 H13         7.9770   -2.3410   -1.4490 hn        1 MOL      0.106312
     38 H14         5.1810   -2.8490   -2.3630 h1        1 MOL      0.087788
     39 H15         5.3170   -4.0180   -0.4930 hc        1 MOL      0.101546
     40 H16         4.3620   -2.6780    0.0640 hc        1 MOL      0.101546
     41 N4          4.4170   -0.2940   -1.8700 n         1 MOL     -0.280103
     42 C14         4.1790    1.1730   -1.8880 c3        1 MOL     -0.126505
     43 C15         4.3140    1.8940   -0.5140 c         1 MOL      0.583589
     44 O9          4.9300    1.4370    0.4170 o         1 MOL     -0.543099
     45 H17         3.5850   -0.8540   -2.0110 hn        1 MOL      0.304541
     46 H18         3.1610    1.3370   -2.2620 h1        1 MOL      0.082054
     47 H19         4.9380    1.6030   -2.5410 h1        1 MOL      0.082054
     48 N5          3.7110    3.0390   -0.4840 n         1 MOL     -0.595391
     49 C16         3.8530    4.1120    0.5750 c3        1 MOL      0.461082
     50 C17         2.5660    4.9910    0.7020 c         1 MOL      0.520269
     51 O10         2.5140    6.2210    0.4330 o         1 MOL     -0.540154
     52 C18         5.1140    5.0240    0.3010 c3        1 MOL     -0.530266
     53 C19         6.4910    4.4110    0.8580 c         1 MOL      0.701447
     54 N6          7.5210    5.1910    0.7320 n         1 MOL     -0.860777
     55 O11         6.6860    3.3100    1.3200 o         1 MOL     -0.470993
     56 H20         3.2410    3.2610   -1.3510 hn        1 MOL      0.317107
     57 H21         3.9730    3.7630    1.5960 h1        1 MOL     -0.038911
     58 H22         5.0120    5.9240    0.9170 hc        1 MOL      0.139325
     59 H23         5.1560    5.2590   -0.7570 hc        1 MOL      0.139325
     60 H24         7.4290    6.1480    0.4310 hn        1 MOL      0.378879
     61 H25         8.4320    4.8330    0.9800 hn        1 MOL      0.378879
     62 N7          1.4300    4.3290    0.9200 n         1 MOL     -0.555810
     63 C20         0.1080    4.8140    0.9060 c3        1 MOL      0.076382
     64 C21        -0.3700    5.1930   -0.5560 c         1 MOL      0.614599
     65 O12         0.3380    4.8240   -1.4550 o         1 MOL     -0.555239
     66 H26         1.4960    3.3300    1.0700 hn        1 MOL      0.344715
     67 H27        -0.0240    5.6700    1.5720 h1        1 MOL      0.070709
     68 H28        -0.5190    4.0020    1.2860 h1        1 MOL      0.070709
     69 N8         -1.5240    5.8180   -0.8080 n         1 MOL     -0.379183
     70 C22        -2.4970    6.4130    0.1340 c3        1 MOL     -0.151160
     71 C23        -3.8230    5.6330    0.1750 c         1 MOL      0.581642
     72 O13        -4.6970    5.8830    1.0140 o         1 MOL     -0.596504
     73 C24        -2.7320    7.9120   -0.0760 c3        1 MOL      0.377064
     74 C25        -1.5300    8.7400    0.2920 c3        1 MOL     -0.336610
     75 O14        -3.0960    8.0600   -1.4540 oh        1 MOL     -0.615930
     76 H29        -1.7890    5.8260   -1.7880 hn        1 MOL      0.293409
     77 H30        -2.1900    6.2220    1.1680 h1        1 MOL      0.097178
     78 H31        -3.5360    8.2490    0.5730 h1        1 MOL      0.006389
     79 H32        -3.9820    8.4270   -1.4800 ho        1 MOL      0.396157
     80 H33        -1.1390    8.7220    1.3060 hc        1 MOL      0.083604
     81 H34        -0.7330    8.5480   -0.4290 hc        1 MOL      0.083604
     82 H35        -1.8130    9.7960    0.2640 hc        1 MOL      0.083604
     83 N9         -3.9320    4.5690   -0.5830 n         1 MOL     -0.498679
     84 C26        -5.0740    3.6700   -0.6520 c3        1 MOL      0.294244
     85 C27        -4.5910    2.2270   -0.4660 c         1 MOL      0.504584
     86 O15        -3.6030    1.9600   -1.1600 o         1 MOL     -0.543042
     87 C28        -6.0440    3.7800   -1.9000 c3        1 MOL     -0.011775
     88 C29        -6.7280    5.1750   -1.8730 c3        1 MOL      0.149455
     89 C30        -7.1090    2.6810   -2.0550 c3        1 MOL     -0.069011
     90 C31        -7.8350    5.4470   -2.8710 c3        1 MOL     -0.287246
     91 H36        -3.1770    4.2830   -1.2020 hn        1 MOL      0.236541
     92 H37        -5.8000    3.8900    0.1330 h1        1 MOL      0.047212
     93 H38        -5.3330    3.7530   -2.7150 hc        1 MOL     -0.002620
     94 H39        -6.0030    5.9840   -1.8020 hc        1 MOL     -0.035652
     95 H40        -7.1370    5.1310   -0.8660 hc        1 MOL     -0.035652
     96 H41        -6.7190    1.6650   -2.0390 hc        1 MOL      0.034921
     97 H42        -8.0540    2.7920   -1.5110 hc        1 MOL      0.034921
     98 H43        -7.4430    2.7380   -3.0890 hc        1 MOL      0.034921
     99 H44        -8.7550    4.9640   -2.5680 hc        1 MOL      0.058229
    100 H45        -8.0150    6.5150   -2.9520 hc        1 MOL      0.058229
    101 H46        -7.4640    5.1040   -3.8380 hc        1 MOL      0.058229
    102 N10        -5.2110    1.3350    0.3680 n         1 MOL     -0.472160
    103 C32        -6.4480    1.4210    1.1330 c3        1 MOL     -0.059648
    104 C33        -7.2140    0.0580    1.0920 c         1 MOL      0.671157
    105 O16        -6.6260   -0.9900    1.4150 o         1 MOL     -0.497429
    106 C34        -6.1640    1.9780    2.5200 c3        1 MOL     -0.248502
    107 C35        -5.0910    1.1840    3.3080 c         1 MOL      0.721291
    108 O17        -3.8780    1.4210    3.2210 o         1 MOL     -0.721487
    109 O18        -5.5240    0.3060    4.0910 o         1 MOL     -0.721487
    110 H47        -4.8940    0.3820    0.3710 hn        1 MOL      0.377821
    111 H48        -7.0550    2.1560    0.6040 h1        1 MOL      0.016035
    112 H49        -7.0930    1.8960    3.0710 hc        1 MOL      0.043467
    113 H50        -5.8540    3.0180    2.4710 hc        1 MOL      0.043467
    114 N11        -8.4830    0.1740    0.5940 n         1 MOL     -0.607854
    115 C36        -9.2510   -1.0340    0.3870 c3        1 MOL      0.333151
    116 C37        -8.9660   -1.8020   -0.8870 c         1 MOL      0.122644
    117 O19        -8.9020   -1.1990   -1.9590 o         1 MOL     -0.497816
    118 C38       -10.7320   -0.6790    0.4940 c3        1 MOL     -0.185716
    119 C39       -11.6380   -1.9290    0.4560 ca        1 MOL      0.100479
    120 C40       -12.1870   -2.3160   -0.7860 ca        1 MOL     -0.236518
    121 C41       -11.7150   -2.7900    1.5550 ca        1 MOL     -0.236518
    122 C42       -12.7910   -3.5620   -0.8700 ca        1 MOL     -0.021819
    123 C43       -12.3460   -4.0250    1.4770 ca        1 MOL     -0.021819
    124 C44       -12.8880   -4.4240    0.2400 ca        1 MOL     -0.212413
    125 H51        -8.7960    1.0600    0.2180 hn        1 MOL      0.316349
    126 H52        -8.8580   -1.6300    1.2130 h1        1 MOL      0.013335
    127 H53       -10.9620    0.0890   -0.2420 hc        1 MOL      0.069610
    128 H54       -10.9260   -0.1010    1.3960 hc        1 MOL      0.069610
    129 H55       -12.0270   -1.7540   -1.6990 ha        1 MOL      0.147178
    130 H56       -11.2400   -2.5790    2.5060 ha        1 MOL      0.147178
    131 H57       -13.3060   -3.8270   -1.7800 ha        1 MOL      0.091411
    132 H58       -12.3180   -4.6510    2.3630 ha        1 MOL      0.091411
    133 H59       -13.4070   -5.3560    0.0810 ha        1 MOL      0.113516
    134 N12        -8.8720   -3.1470   -0.8390 n         1 MOL      0.275245
    135 C45        -8.6670   -4.0020    0.3200 c3        1 MOL     -0.081654
    136 C46        -7.3200   -4.0140    0.9700 c         1 MOL      0.653505
    137 O20        -7.1130   -4.1310    2.1720 o         1 MOL     -0.599317
    138 C47        -9.1200   -5.3870   -0.1550 c3        1 MOL     -0.173588
    139 C48        -8.6930   -5.3970   -1.6320 c3        1 MOL      0.011080
    140 C49        -8.9960   -3.9530   -2.0200 c3        1 MOL      0.061637
    141 H60        -9.4130   -3.6240    1.0200 h1        1 MOL      0.015326
    142 H61        -8.5220   -6.1470    0.3490 hc        1 MOL      0.052623
    143 H62       -10.1930   -5.5370   -0.0840 hc        1 MOL      0.052623
    144 H63        -7.6180   -5.6030   -1.6750 hc        1 MOL      0.009521
    145 H64        -9.2480   -6.0990   -2.2440 hc        1 MOL      0.009521
    146 H65        -8.2760   -3.7070   -2.7980 h1        1 MOL     -0.012872
    147 H66        -9.9980   -3.8780   -2.4400 h1        1 MOL     -0.012872
    148 N13        -6.2930   -3.8370    0.1580 n         1 MOL     -0.425539
    149 C50        -4.8970   -3.6160    0.6590 c3        1 MOL      0.098066
    150 C51        -4.4030   -4.8940    1.3190 c         1 MOL      0.461894
    151 O21        -4.1430   -5.9600    0.6770 o         1 MOL     -0.605391
    152 C52        -4.0450   -3.2340   -0.5980 c3        1 MOL      0.023211
    153 C53        -4.5380   -2.1070   -1.4770 c3        1 MOL     -0.111135
    154 C54        -3.6320   -1.9440   -2.6960 c         1 MOL      0.746417
    155 O22        -4.2320   -1.7490   -3.7450 o         1 MOL     -0.721824
    156 O23        -2.3880   -2.1170   -2.6920 o         1 MOL     -0.721824
    157 H67        -6.5610   -3.5830   -0.7860 hn        1 MOL      0.265585
    158 H68        -4.7930   -2.7530    1.3280 h1        1 MOL      0.124613
    159 H69        -3.7590   -4.1140   -1.1780 hc        1 MOL     -0.000158
    160 H70        -3.0650   -2.9590   -0.2070 hc        1 MOL     -0.000158
    161 H71        -4.5340   -1.2230   -0.8530 hc        1 MOL     -0.031344
    162 H72        -5.5650   -2.3530   -1.7400 hc        1 MOL     -0.031344
    163 N14        -4.2440   -5.0030    2.6200 n         1 MOL     -0.385064
    164 C55        -4.5440   -3.9470    3.6560 c3        1 MOL     -0.097891
    165 H73        -4.6410   -4.4170    4.6350 h1        1 MOL      0.074689
    166 H74        -3.7310   -3.2210    3.6810 h1        1 MOL      0.074689
    167 H75        -5.4760   -3.4420    3.4020 h1        1 MOL      0.074689
    168 H76        -4.1440   -5.9440    2.9910 hn        1 MOL      0.284385
    169 Ca1         7.5900    0.8940    0.8490 Ca        1 MOL      1.783332
    170 O24         6.0940    0.7400    3.1060 oh        1 MOL     -0.854303
    171 H77         6.3330    1.2380    3.8910 ho        1 MOL      0.407913
    172 H78         5.1500    0.6420    3.1800 ho        1 MOL      0.407913
    173 O25        10.0990    2.2860    0.2570 oh        1 MOL     -0.854303
    174 H79        10.9920    2.3240    0.6040 ho        1 MOL      0.407913
    175 H80        10.2210    2.2580   -0.6960 ho        1 MOL      0.407913
    176 O26         7.9000    2.2170   -1.4650 oh        1 MOL     -0.854303
    177 H81         8.2690    3.0970   -1.4510 ho        1 MOL      0.407913
    178 H82         7.4850    2.1450   -2.3270 ho        1 MOL      0.407913
    179 O27         8.7360    2.1160    3.0940 oh        1 MOL     -0.854303
    180 H83         9.6260    1.7920    2.9770 ho        1 MOL      0.407913
    181 H84         8.7650    2.6010    3.9310 ho        1 MOL      0.407913
@<TRIPOS>BOND
     1    1    2 1   
     2    1    4 1   
     3    1    5 1   
     4    1    6 1   
     5    2    3 2   
     6    2    7 1   
     7    7    8 1   
     8    7   15 1   
     9    8    9 1   
    10    8   11 1   
    11    8   16 1   
    12    9   10 2   
    13    9   19 1   
    14   11   12 1   
    15   11   17 1   
    16   11   18 1   
    17   12   13 1   
    18   12   14 1   
    19   19   20 1   
    20   19   24 1   
    21   20   21 1   
    22   20   23 1   
    23   20   25 1   
    24   21   22 2   
    25   21   29 1   
    26   23   26 1   
    27   23   27 1   
    28   23   28 1   
    29   29   30 1   
    30   29   37 1   
    31   30   31 1   
    32   30   33 1   
    33   30   38 1   
    34   31   32 2   
    35   31   41 1   
    36   33   34 1   
    37   33   39 1   
    38   33   40 1   
    39   34   35 1   
    40   34   36 1   
    41   41   42 1   
    42   41   45 1   
    43   42   43 1   
    44   42   46 1   
    45   42   47 1   
    46   43   44 2   
    47   43   48 1   
    48   48   49 1   
    49   48   56 1   
    50   49   50 1   
    51   49   52 1   
    52   49   57 1   
    53   50   51 2   
    54   50   62 1   
    55   52   53 1   
    56   52   58 1   
    57   52   59 1   
    58   53   54 1   
    59   53   55 2   
    60   54   60 1   
    61   54   61 1   
    62   62   63 1   
    63   62   66 1   
    64   63   64 1   
    65   63   67 1   
    66   63   68 1   
    67   64   65 2   
    68   64   69 1   
    69   69   70 1   
    70   69   76 1   
    71   70   71 1   
    72   70   73 1   
    73   70   77 1   
    74   71   72 2   
    75   71   83 1   
    76   73   74 1   
    77   73   75 1   
    78   73   78 1   
    79   74   80 1   
    80   74   81 1   
    81   74   82 1   
    82   75   79 1   
    83   83   84 1   
    84   83   91 1   
    85   84   85 1   
    86   84   87 1   
    87   84   92 1   
    88   85   86 2   
    89   85  102 1   
    90   87   88 1   
    91   87   89 1   
    92   87   93 1   
    93   88   90 1   
    94   88   94 1   
    95   88   95 1   
    96   89   96 1   
    97   89   97 1   
    98   89   98 1   
    99   90   99 1   
   100   90  100 1   
   101   90  101 1   
   102  102  103 1   
   103  102  110 1   
   104  103  104 1   
   105  103  106 1   
   106  103  111 1   
   107  104  105 2   
   108  104  114 1   
   109  106  107 1   
   110  106  112 1   
   111  106  113 1   
   112  107  108 1   
   113  107  109 1   
   114  114  115 1   
   115  114  125 1   
   116  115  116 1   
   117  115  118 1   
   118  115  126 1   
   119  116  117 2   
   120  116  134 1   
   121  118  119 1   
   122  118  127 1   
   123  118  128 1   
   124  119  120 ar  
   125  119  121 ar  
   126  120  122 ar  
   127  120  129 1   
   128  121  123 ar  
   129  121  130 1   
   130  122  124 ar  
   131  122  131 1   
   132  123  124 ar  
   133  123  132 1   
   134  124  133 1   
   135  134  135 1   
   136  134  140 1   
   137  135  136 1   
   138  135  138 1   
   139  135  141 1   
   140  136  137 2   
   141  136  148 1   
   142  138  139 1   
   143  138  142 1   
   144  138  143 1   
   145  139  140 1   
   146  139  144 1   
   147  139  145 1   
   148  140  146 1   
   149  140  147 1   
   150  148  149 1   
   151  148  157 1   
   152  149  150 1   
   153  149  152 1   
   154  149  158 1   
   155  150  151 2   
   156  150  163 1   
   157  152  153 1   
   158  152  159 1   
   159  152  160 1   
   160  153  154 1   
   161  153  161 1   
   162  153  162 1   
   163  154  155 1   
   164  154  156 1   
   165  163  164 1   
   166  163  168 1   
   167  164  165 1   
   168  164  166 1   
   169  164  167 1   
   170  170  171 1   
   171  170  172 1   
   172  173  174 1   
   173  173  175 1   
   174  176  177 1   
   175  176  178 1   
   176  179  180 1   
   177  179  181 1   
@<TRIPOS>SUBSTRUCTURE
     1 MOL         1 TEMP              0 ****  ****    0 ROOT
