@<TRIPOS>MOLECULE
MOL
  181   177     1     0     0
SMALL
resp


@<TRIPOS>ATOM
      1 C1          1.6430    7.5890   -1.4460 c3        1 MOL     -0.322206
      2 C2          3.1210    7.1280   -0.9700 c         1 MOL      0.645310
      3 O1          3.5150    7.3940    0.2010 o         1 MOL     -0.603970
      4 H1          1.7010    8.0170   -2.4480 hc        1 MOL      0.082000
      5 H2          0.9790    6.7250   -1.4590 hc        1 MOL      0.082000
      6 H3          1.2550    8.3370   -0.7550 hc        1 MOL      0.082000
      7 N1          3.9810    6.6010   -1.8000 n         1 MOL     -0.570066
      8 C3          5.3440    6.1520   -1.5240 c3        1 MOL      0.344868
      9 C4          5.3000    4.9320   -0.5090 c         1 MOL      0.645156
     10 O2          5.3060    3.7690   -0.9140 o         1 MOL     -0.559358
     11 C5          6.0790    5.7870   -2.7890 c3        1 MOL     -0.514542
     12 C6          7.5290    5.5220   -2.4680 c         1 MOL      0.779958
     13 O3          8.1520    6.0930   -1.5560 o         1 MOL     -0.735624
     14 O4          8.1470    4.6040   -3.0380 o         1 MOL     -0.735624
     15 H4          3.6310    6.4940   -2.7350 hn        1 MOL      0.295606
     16 H5          5.9120    6.9690   -1.0720 h1        1 MOL     -0.024760
     17 H6          5.9380    6.6670   -3.4070 hc        1 MOL      0.091675
     18 H7          5.6790    4.9540   -3.3600 hc        1 MOL      0.091675
     19 N2          5.2730    5.2330    0.7420 n         1 MOL     -0.709714
     20 C7          4.8950    4.2910    1.8240 c3        1 MOL      0.585003
     21 C8          3.5920    3.6590    1.6140 c         1 MOL      0.247337
     22 O5          2.6770    4.2600    0.9850 o         1 MOL     -0.487274
     23 C9          5.0340    5.0480    3.2180 c3        1 MOL     -0.420923
     24 H8          5.1290    6.2150    0.9210 hn        1 MOL      0.342125
     25 H9          5.6530    3.5120    1.6810 h1        1 MOL     -0.019153
     26 H10         6.0090    5.5220    3.3160 hc        1 MOL      0.109339
     27 H11         4.2680    5.8260    3.2240 hc        1 MOL      0.109339
     28 H12         4.9940    4.2680    3.9720 hc        1 MOL      0.109339
     29 N3          3.2330    2.4210    2.0750 n         1 MOL     -0.179218
     30 C10         3.9900    1.4900    2.8890 c3        1 MOL     -0.264852
     31 C11         4.1870    0.0520    2.2580 c         1 MOL      0.660491
     32 O6          3.3340   -0.4770    1.5590 o         1 MOL     -0.543131
     33 C12         3.2890    1.3000    4.2030 c3        1 MOL      0.045173
     34 C13         1.8100    1.1080    4.1730 c         1 MOL      0.666762
     35 O7          1.1680    1.1260    5.2910 o         1 MOL     -0.690174
     36 O8          1.2510    0.7500    3.0720 o         1 MOL     -0.690174
     37 H13         2.3670    2.0550    1.7070 hn        1 MOL      0.209074
     38 H14         5.0070    1.8010    3.1520 h1        1 MOL      0.067226
     39 H15         3.5180    2.1470    4.8400 hc        1 MOL     -0.026998
     40 H16         3.6280    0.3810    4.6850 hc        1 MOL     -0.026998
     41 N4          5.4030   -0.5070    2.4600 n         1 MOL     -0.543788
     42 C14         5.9340   -1.6230    1.7560 c3        1 MOL     -0.002401
     43 C15         6.6890   -1.2440    0.4630 c         1 MOL      0.584635
     44 O9          6.9780   -0.0810    0.2640 o         1 MOL     -0.470981
     45 H17         6.1390    0.0510    2.8470 hn        1 MOL      0.333729
     46 H18         5.1800   -2.3810    1.5740 h1        1 MOL      0.073046
     47 H19         6.6760   -2.0150    2.4490 h1        1 MOL      0.073046
     48 N5          7.0040   -2.2010   -0.3820 n         1 MOL     -0.607876
     49 C16         6.7460   -3.6670   -0.4360 c3        1 MOL      0.053982
     50 C17         5.6690   -4.0800   -1.5080 c         1 MOL      0.539718
     51 O10         5.3010   -5.2750   -1.7440 o         1 MOL     -0.561003
     52 C18         8.1200   -4.3130   -0.7620 c3        1 MOL     -0.168873
     53 C19         9.2700   -4.0370    0.2340 c         1 MOL      0.686030
     54 N6          9.7920   -5.0210    0.9220 n         1 MOL     -0.811064
     55 O11         9.7360   -2.9240    0.4350 o         1 MOL     -0.529168
     56 H20         7.5640   -1.7780   -1.1010 hn        1 MOL      0.322657
     57 H21         6.3970   -4.0910    0.5100 h1        1 MOL      0.060680
     58 H22         8.5750   -3.9260   -1.6810 hc        1 MOL      0.056214
     59 H23         8.0780   -5.3850   -0.9170 hc        1 MOL      0.056214
     60 H24         9.3990   -5.9510    0.8340 hn        1 MOL      0.365456
     61 H25        10.6010   -4.8940    1.5100 hn        1 MOL      0.365456
     62 N7          5.2050   -3.0990   -2.2910 n         1 MOL     -0.286802
     63 C20         4.4620   -3.3480   -3.6040 c3        1 MOL     -0.264404
     64 C21         3.0230   -3.8620   -3.4500 c         1 MOL      0.579457
     65 O12         2.5340   -4.3380   -4.4970 o         1 MOL     -0.555440
     66 H26         5.5170   -2.1690   -2.0600 hn        1 MOL      0.278480
     67 H27         5.0350   -4.1400   -4.0800 h1        1 MOL      0.159435
     68 H28         4.6270   -2.4450   -4.1940 h1        1 MOL      0.159435
     69 N8          2.3000   -3.8470   -2.3310 n         1 MOL     -0.261756
     70 C22         0.9550   -4.4130   -2.1880 c3        1 MOL      0.026626
     71 C23        -0.0450   -3.5210   -1.4910 c         1 MOL      0.470359
     72 O13         0.3980   -2.7130   -0.7170 o         1 MOL     -0.607420
     73 C24         0.9760   -5.7510   -1.4450 c3        1 MOL      0.367495
     74 C25         1.8860   -6.7240   -2.1620 c3        1 MOL     -0.417904
     75 O14         1.4830   -5.6640   -0.1190 oh        1 MOL     -0.614819
     76 H29         2.7530   -3.6510   -1.4490 hn        1 MOL      0.163139
     77 H30         0.6080   -4.5130   -3.2160 h1        1 MOL      0.049799
     78 H31        -0.0330   -6.1700   -1.3600 h1        1 MOL      0.012786
     79 H32         1.0650   -6.3640    0.3940 ho        1 MOL      0.394256
     80 H33         1.6110   -6.8760   -3.2010 hc        1 MOL      0.106956
     81 H34         2.9410   -6.4910   -2.0120 hc        1 MOL      0.106956
     82 H35         1.7600   -7.6910   -1.6660 hc        1 MOL      0.106956
     83 N9         -1.3410   -3.7600   -1.6850 n         1 MOL     -0.235590
     84 C26        -2.4430   -2.8980   -1.3510 c3        1 MOL     -0.033729
     85 C27        -3.0790   -3.1940    0.0680 c         1 MOL      0.140508
     86 O15        -3.3040   -4.3510    0.3760 o         1 MOL     -0.515361
     87 C28        -3.5490   -3.0100   -2.5000 c3        1 MOL      0.172096
     88 C29        -4.8630   -2.2230   -2.1350 c3        1 MOL      0.323215
     89 C30        -2.9300   -2.5840   -3.8910 c3        1 MOL     -0.463058
     90 C31        -6.0340   -2.6540   -2.9860 c3        1 MOL     -0.284226
     91 H36        -1.4690   -4.5610   -2.2820 hn        1 MOL      0.192868
     92 H37        -2.1960   -1.8400   -1.3850 h1        1 MOL      0.157439
     93 H38        -3.8620   -4.0470   -2.6210 hc        1 MOL     -0.000021
     94 H39        -4.6830   -1.1460   -2.2230 hc        1 MOL     -0.067260
     95 H40        -5.1050   -2.4000   -1.0920 hc        1 MOL     -0.067260
     96 H41        -2.1020   -3.1840   -4.2880 hc        1 MOL      0.100697
     97 H42        -3.6580   -2.5920   -4.6950 hc        1 MOL      0.100697
     98 H43        -2.4370   -1.6280   -3.7060 hc        1 MOL      0.100697
     99 H44        -5.7290   -2.5070   -4.0220 hc        1 MOL      0.045336
    100 H45        -6.3950   -3.6380   -2.6850 hc        1 MOL      0.045336
    101 H46        -6.8520   -1.9560   -2.7970 hc        1 MOL      0.045336
    102 N10        -3.2860   -2.1560    0.7780 n         1 MOL      0.038742
    103 C32        -4.1050   -2.2440    2.0700 c3        1 MOL     -0.042544
    104 C33        -5.4640   -1.5670    1.9050 c         1 MOL      0.428336
    105 O16        -6.4540   -1.8840    2.5440 o         1 MOL     -0.580222
    106 C34        -3.3970   -1.6100    3.2190 c3        1 MOL     -0.299709
    107 C35        -2.0230   -2.3040    3.4280 c         1 MOL      0.930984
    108 O17        -1.9800   -3.4130    3.9560 o         1 MOL     -0.765124
    109 O18        -1.0170   -1.6360    3.1590 o         1 MOL     -0.765124
    110 H47        -2.7830   -1.3050    0.5920 hn        1 MOL      0.130599
    111 H48        -4.2030   -3.2980    2.3410 h1        1 MOL      0.101738
    112 H49        -3.9980   -1.5800    4.1280 hc        1 MOL      0.080235
    113 H50        -3.2670   -0.5450    3.0320 hc        1 MOL      0.080235
    114 N11        -5.6830   -0.6750    0.9470 n         1 MOL     -0.126403
    115 C36        -6.9470    0.0830    0.7860 c3        1 MOL      0.329113
    116 C37        -6.6650    1.5400    0.4140 c         1 MOL      0.259986
    117 O19        -7.1630    1.9850   -0.6160 o         1 MOL     -0.491310
    118 C38        -7.8440   -0.6650   -0.2330 c3        1 MOL     -0.455479
    119 C39        -9.3080   -0.4010    0.1140 ca        1 MOL      0.240655
    120 C40       -10.0210    0.6740   -0.3810 ca        1 MOL     -0.238811
    121 C41       -10.0020   -1.3570    0.9250 ca        1 MOL     -0.238811
    122 C42       -11.3670    0.7980   -0.0120 ca        1 MOL     -0.036351
    123 C43       -11.3200   -1.1850    1.3240 ca        1 MOL     -0.036351
    124 C44       -12.0440   -0.1170    0.7850 ca        1 MOL     -0.230831
    125 H51        -4.8800   -0.2870    0.4720 hn        1 MOL      0.067721
    126 H52        -7.3810    0.1380    1.7880 h1        1 MOL      0.003097
    127 H53        -7.6590   -1.7100   -0.0220 hc        1 MOL      0.150008
    128 H54        -7.4510   -0.3570   -1.2070 hc        1 MOL      0.150008
    129 H55        -9.6510    1.3850   -1.0980 ha        1 MOL      0.141236
    130 H56        -9.4950   -2.2020    1.3770 ha        1 MOL      0.141236
    131 H57       -11.9420    1.5710   -0.4920 ha        1 MOL      0.081552
    132 H58       -11.8040   -1.8690    2.0010 ha        1 MOL      0.081552
    133 H59       -13.1030   -0.0730    0.9870 ha        1 MOL      0.115124
    134 N12        -5.8130    2.3220    1.1240 n         1 MOL     -0.040735
    135 C45        -5.4170    3.6650    0.7730 c3        1 MOL     -0.042606
    136 C46        -4.7100    3.8140   -0.6000 c         1 MOL      0.325800
    137 O20        -4.6920    4.8960   -1.1520 o         1 MOL     -0.507723
    138 C47        -4.4450    4.0800    1.8890 c3        1 MOL     -0.151419
    139 C48        -4.7780    3.2180    3.0640 c3        1 MOL      0.146825
    140 C49        -5.2000    1.9180    2.4440 c3        1 MOL     -0.182158
    141 H60        -6.3420    4.2400    0.8130 h1        1 MOL      0.080768
    142 H61        -3.4270    3.8720    1.5810 hc        1 MOL      0.070918
    143 H62        -4.6120    5.1290    2.1470 hc        1 MOL      0.070918
    144 H63        -3.9600    3.1580    3.7850 hc        1 MOL     -0.013492
    145 H64        -5.5890    3.5430    3.7120 hc        1 MOL     -0.013492
    146 H65        -4.3080    1.2960    2.3900 h1        1 MOL      0.096810
    147 H66        -5.8550    1.4010    3.1420 h1        1 MOL      0.096810
    148 N13        -4.0480    2.7930   -1.1100 n         1 MOL      0.112585
    149 C50        -3.3870    2.8250   -2.4360 c3        1 MOL     -0.512171
    150 C51        -4.4450    2.9430   -3.5760 c         1 MOL      0.582236
    151 O21        -4.4210    3.9100   -4.3590 o         1 MOL     -0.523770
    152 C52        -2.5020    1.5870   -2.6090 c3        1 MOL      0.319082
    153 C53        -1.4450    1.3520   -1.4950 c3        1 MOL     -0.251958
    154 C54        -1.9310    0.5370   -0.2620 c         1 MOL      0.949988
    155 O22        -1.0840   -0.0250    0.4430 o         1 MOL     -0.794202
    156 O23        -3.1590    0.5170    0.0340 o         1 MOL     -0.794202
    157 H67        -3.8500    2.0070   -0.5020 hn        1 MOL      0.151172
    158 H68        -2.6880    3.6580   -2.4870 h1        1 MOL      0.192699
    159 H69        -1.9060    1.6650   -3.5230 hc        1 MOL     -0.082699
    160 H70        -2.9850    0.6140   -2.7170 hc        1 MOL     -0.082699
    161 H71        -1.0470    2.3410   -1.2400 hc        1 MOL      0.055195
    162 H72        -0.6680    0.7050   -1.9210 hc        1 MOL      0.055195
    163 N14        -5.4400    2.0370   -3.6220 n         1 MOL     -0.286878
    164 C55        -6.6410    2.1830   -4.4550 c3        1 MOL     -0.271992
    165 H73        -6.3680    2.6320   -5.4100 h1        1 MOL      0.112593
    166 H74        -7.0850    1.2020   -4.6280 h1        1 MOL      0.112593
    167 H75        -7.3610    2.8240   -3.9470 h1        1 MOL      0.112593
    168 H76        -5.4090    1.2180   -3.0310 hn        1 MOL      0.242744
    169 Ca1         0.9150   -1.3810    1.4560 Ca        1 MOL      1.859042
    170 O24        -0.3150   -3.9060    1.7410 oh        1 MOL     -0.892920
    171 H77         0.0510   -4.7850    1.8460 ho        1 MOL      0.419813
    172 H78        -1.0020   -3.8480    2.4030 ho        1 MOL      0.419813
    173 O25         1.5920    0.6050   -0.2860 oh        1 MOL     -0.892920
    174 H79         2.4700    0.9760   -0.2570 ho        1 MOL      0.419813
    175 H80         1.1410    1.0870   -0.9760 ho        1 MOL      0.419813
    176 O26         1.9500   -2.1890    3.8860 oh        1 MOL     -0.892920
    177 H81         2.6660   -2.5980    4.3670 ho        1 MOL      0.419813
    178 H82         1.4440   -1.7210    4.5580 ho        1 MOL      0.419813
    179 O27         2.7410   -3.4570    0.9570 oh        1 MOL     -0.892920
    180 H83         2.2850   -4.2500    0.6530 ho        1 MOL      0.419813
    181 H84         3.4400   -3.7930    1.5240 ho        1 MOL      0.419813
@<TRIPOS>BOND
     1    1    2 1   
     2    1    4 1   
     3    1    5 1   
     4    1    6 1   
     5    2    3 2   
     6    2    7 1   
     7    7    8 1   
     8    7   15 1   
     9    8    9 1   
    10    8   11 1   
    11    8   16 1   
    12    9   10 2   
    13    9   19 1   
    14   11   12 1   
    15   11   17 1   
    16   11   18 1   
    17   12   13 1   
    18   12   14 1   
    19   19   20 1   
    20   19   24 1   
    21   20   21 1   
    22   20   23 1   
    23   20   25 1   
    24   21   22 2   
    25   21   29 1   
    26   23   26 1   
    27   23   27 1   
    28   23   28 1   
    29   29   30 1   
    30   29   37 1   
    31   30   31 1   
    32   30   33 1   
    33   30   38 1   
    34   31   32 2   
    35   31   41 1   
    36   33   34 1   
    37   33   39 1   
    38   33   40 1   
    39   34   35 1   
    40   34   36 1   
    41   41   42 1   
    42   41   45 1   
    43   42   43 1   
    44   42   46 1   
    45   42   47 1   
    46   43   44 2   
    47   43   48 1   
    48   48   49 1   
    49   48   56 1   
    50   49   50 1   
    51   49   52 1   
    52   49   57 1   
    53   50   51 2   
    54   50   62 1   
    55   52   53 1   
    56   52   58 1   
    57   52   59 1   
    58   53   54 1   
    59   53   55 2   
    60   54   60 1   
    61   54   61 1   
    62   62   63 1   
    63   62   66 1   
    64   63   64 1   
    65   63   67 1   
    66   63   68 1   
    67   64   65 2   
    68   64   69 1   
    69   69   70 1   
    70   69   76 1   
    71   70   71 1   
    72   70   73 1   
    73   70   77 1   
    74   71   72 2   
    75   71   83 1   
    76   73   74 1   
    77   73   75 1   
    78   73   78 1   
    79   74   80 1   
    80   74   81 1   
    81   74   82 1   
    82   75   79 1   
    83   83   84 1   
    84   83   91 1   
    85   84   85 1   
    86   84   87 1   
    87   84   92 1   
    88   85   86 2   
    89   85  102 1   
    90   87   88 1   
    91   87   89 1   
    92   87   93 1   
    93   88   90 1   
    94   88   94 1   
    95   88   95 1   
    96   89   96 1   
    97   89   97 1   
    98   89   98 1   
    99   90   99 1   
   100   90  100 1   
   101   90  101 1   
   102  102  103 1   
   103  102  110 1   
   104  103  104 1   
   105  103  106 1   
   106  103  111 1   
   107  104  105 2   
   108  104  114 1   
   109  106  107 1   
   110  106  112 1   
   111  106  113 1   
   112  107  108 1   
   113  107  109 1   
   114  114  115 1   
   115  114  125 1   
   116  115  116 1   
   117  115  118 1   
   118  115  126 1   
   119  116  117 2   
   120  116  134 1   
   121  118  119 1   
   122  118  127 1   
   123  118  128 1   
   124  119  120 ar  
   125  119  121 ar  
   126  120  122 ar  
   127  120  129 1   
   128  121  123 ar  
   129  121  130 1   
   130  122  124 ar  
   131  122  131 1   
   132  123  124 ar  
   133  123  132 1   
   134  124  133 1   
   135  134  135 1   
   136  134  140 1   
   137  135  136 1   
   138  135  138 1   
   139  135  141 1   
   140  136  137 2   
   141  136  148 1   
   142  138  139 1   
   143  138  142 1   
   144  138  143 1   
   145  139  140 1   
   146  139  144 1   
   147  139  145 1   
   148  140  146 1   
   149  140  147 1   
   150  148  149 1   
   151  148  157 1   
   152  149  150 1   
   153  149  152 1   
   154  149  158 1   
   155  150  151 2   
   156  150  163 1   
   157  152  153 1   
   158  152  159 1   
   159  152  160 1   
   160  153  154 1   
   161  153  161 1   
   162  153  162 1   
   163  154  155 1   
   164  154  156 1   
   165  163  164 1   
   166  163  168 1   
   167  164  165 1   
   168  164  166 1   
   169  164  167 1   
   170  170  171 1   
   171  170  172 1   
   172  173  174 1   
   173  173  175 1   
   174  176  177 1   
   175  176  178 1   
   176  179  180 1   
   177  179  181 1   
@<TRIPOS>SUBSTRUCTURE
     1 MOL         1 TEMP              0 ****  ****    0 ROOT
