@<TRIPOS>MOLECULE
MOL
  195   189     1     0     0
SMALL
resp


@<TRIPOS>ATOM
      1 C1          5.2570    0.9120    6.2630 c3        1 MOL     -0.408166
      2 C2          4.9140    0.8740    4.7620 c         1 MOL      0.725979
      3 O1          4.3740    1.9210    4.3020 o         1 MOL     -0.608734
      4 H1          5.1460   -0.0870    6.6850 hc        1 MOL      0.103755
      5 H2          6.2850    1.2480    6.3930 hc        1 MOL      0.103755
      6 H3          4.5820    1.5980    6.7730 hc        1 MOL      0.103755
      7 N1          5.1750   -0.1220    3.9160 n         1 MOL     -0.562669
      8 C3          4.9070   -0.0440    2.4820 c3        1 MOL      0.191758
      9 C4          3.4350   -0.3670    2.0870 c         1 MOL      0.066732
     10 O2          3.2270   -0.9280    1.0020 o         1 MOL     -0.348356
     11 C5          5.9580   -0.8200    1.6940 c3        1 MOL     -0.142539
     12 C6          6.2710   -2.2180    2.1650 c         1 MOL      0.692175
     13 O3          7.1960   -2.7740    1.5650 o         1 MOL     -0.703088
     14 O4          5.7550   -2.8480    3.1940 o         1 MOL     -0.703088
     15 H4          5.2950   -1.0540    4.2820 hn        1 MOL      0.269520
     16 H5          5.1100    0.9940    2.2000 h1        1 MOL      0.125902
     17 H6          6.8480   -0.1920    1.7410 hc        1 MOL      0.052011
     18 H7          5.7210   -1.0010    0.6460 hc        1 MOL      0.052011
     19 N2          2.5210    0.1170    2.8260 n         1 MOL     -0.033190
     20 C7          0.9980    0.0080    2.6950 c3        1 MOL      0.087918
     21 C8          0.3390    1.4040    2.5430 c         1 MOL      0.262468
     22 O5          0.5660    2.3460    3.3830 o         1 MOL     -0.502029
     23 C9          0.4600   -0.6840    4.0050 c3        1 MOL     -0.039648
     24 C10         0.8760   -2.1490    4.1500 c3        1 MOL     -0.017609
     25 C11         0.1250   -2.7140    5.3160 c3        1 MOL      0.027084
     26 C12         0.4830   -2.1230    6.7010 c3        1 MOL      0.128596
     27 N3         -0.1330   -2.8550    7.7450 n4        1 MOL     -0.276135
     28 H8          2.8260    0.4980    3.7010 hn        1 MOL      0.139887
     29 H9          0.8720   -0.5650    1.7830 h1        1 MOL      0.155675
     30 H10        -0.6220   -0.7140    3.8900 hc        1 MOL      0.034660
     31 H11         0.7230   -0.0830    4.8730 hc        1 MOL      0.034660
     32 H12         1.9300   -2.1400    4.4550 hc        1 MOL      0.038365
     33 H13         0.6730   -2.6610    3.2080 hc        1 MOL      0.038365
     34 H14         0.4250   -3.7510    5.4630 hc        1 MOL     -0.001923
     35 H15        -0.9590   -2.6380    5.2380 hc        1 MOL     -0.001923
     36 H16         0.0190   -1.1470    6.7570 hx        1 MOL      0.031016
     37 H17         1.5720   -2.0910    6.7560 hx        1 MOL      0.031016
     38 H18         0.3250   -3.7560    7.7710 hn        1 MOL      0.306647
     39 H19        -0.1300   -2.4100    8.6620 hn        1 MOL      0.306647
     40 H20        -1.0590   -3.1310    7.4650 hn        1 MOL      0.306647
     41 N4         -0.5970    1.6620    1.5930 n         1 MOL      0.067364
     42 C13        -1.1350    0.7780    0.5320 c3        1 MOL     -0.685443
     43 C14        -1.4780   -0.6960    0.8990 c         1 MOL      0.320767
     44 O6         -0.7080   -1.6340    0.4560 o         1 MOL     -0.477758
     45 C15        -0.4060    1.0370   -0.7510 c3        1 MOL      0.001391
     46 C16        -0.6390    2.4130   -1.2780 c         1 MOL      0.385186
     47 O7         -1.4770    3.1980   -0.7410 o         1 MOL     -0.640375
     48 O8          0.1440    2.9030   -2.1610 o         1 MOL     -0.640375
     49 H21        -0.8960    2.6200    1.6040 hn        1 MOL      0.150305
     50 H22        -2.1410    1.1540    0.3870 h1        1 MOL      0.169340
     51 H23        -0.7520    0.3640   -1.5410 hc        1 MOL      0.126107
     52 H24         0.6640    0.9030   -0.6170 hc        1 MOL      0.126107
     53 N5         -2.4770   -0.9230    1.7770 n         1 MOL     -0.222607
     54 C17        -3.5300    0.0040    2.1540 c3        1 MOL      0.042874
     55 C18        -4.5700   -0.6690    3.0710 c         1 MOL      0.440579
     56 O9         -4.4120   -1.7730    3.6300 o         1 MOL     -0.557761
     57 H25        -2.6800   -1.9020    1.8930 hn        1 MOL      0.222204
     58 H26        -4.0980    0.2910    1.2640 h1        1 MOL      0.063538
     59 H27        -3.1130    0.8360    2.7090 h1        1 MOL      0.063538
     60 N6         -5.7020   -0.0180    3.2950 n         1 MOL     -0.447873
     61 C19        -6.1880    1.2460    2.6550 c3        1 MOL      0.159675
     62 C20        -6.9990    0.9570    1.3700 c         1 MOL      0.518858
     63 O10        -7.3430   -0.1950    1.1440 o         1 MOL     -0.475631
     64 C21        -7.0460    1.9840    3.7250 c3        1 MOL     -0.193129
     65 C22        -8.0190    1.0340    4.4650 c         1 MOL      0.669830
     66 O11        -8.4820    0.0680    3.8270 o         1 MOL     -0.683434
     67 O12        -8.2760    1.3050    5.6580 o         1 MOL     -0.683434
     68 H28        -6.3960   -0.5820    3.7660 hn        1 MOL      0.338970
     69 H29        -5.4140    1.9490    2.3630 h1        1 MOL     -0.035482
     70 H30        -7.6150    2.7930    3.2530 hc        1 MOL      0.019963
     71 H31        -6.3850    2.4940    4.4170 hc        1 MOL      0.019963
     72 N7         -7.2280    1.9870    0.6120 n         1 MOL     -0.322669
     73 C23        -7.9310    1.9990   -0.6860 c3        1 MOL     -0.154135
     74 C24        -7.3150    1.0880   -1.6830 c         1 MOL      0.484180
     75 O13        -8.0510    0.5750   -2.5450 o         1 MOL     -0.552762
     76 H32        -7.0150    2.9060    0.9660 hn        1 MOL      0.221673
     77 H33        -7.9930    2.9530   -1.1890 h1        1 MOL      0.127904
     78 H34        -8.9680    1.6910   -0.4940 h1        1 MOL      0.127904
     79 N8         -6.0240    0.6970   -1.6680 n         1 MOL     -0.185055
     80 C25        -5.3790   -0.3370   -2.4370 c3        1 MOL      0.095791
     81 C26        -4.4910   -1.2240   -1.6300 c         1 MOL      0.056476
     82 O14        -3.7020   -0.6580   -0.9550 o         1 MOL     -0.141523
     83 C27        -4.7090    0.1030   -3.7520 c3        1 MOL      0.170691
     84 C28        -3.7170    1.2890   -3.5580 c3        1 MOL     -0.390341
     85 O15        -5.7090    0.5590   -4.6480 oh        1 MOL     -0.559208
     86 H35        -5.3630    1.2290   -1.1330 hn        1 MOL      0.078799
     87 H36        -6.1880   -0.9190   -2.8940 h1        1 MOL      0.078163
     88 H37        -4.1720   -0.7500   -4.1510 h1        1 MOL      0.029618
     89 H38        -6.1430   -0.2330   -4.9680 ho        1 MOL      0.377768
     90 H39        -2.8740    0.8700   -3.0200 hc        1 MOL      0.133269
     91 H40        -3.3720    1.5530   -4.5560 hc        1 MOL      0.133269
     92 H41        -4.2600    2.1420   -3.1450 hc        1 MOL      0.133269
     93 N9         -4.5240   -2.5110   -1.7750 n         1 MOL     -0.158287
     94 C29        -3.7000   -3.4460   -1.0130 c3        1 MOL     -0.117990
     95 C30        -2.5550   -4.0330   -1.8210 c         1 MOL      0.351309
     96 O16        -2.0850   -5.1170   -1.5980 o         1 MOL     -0.501022
     97 C31        -4.6200   -4.5390   -0.4030 c3        1 MOL      0.121009
     98 C32        -5.4250   -5.2580   -1.5320 c3        1 MOL      0.110801
     99 C33        -5.6940   -4.0110    0.5650 c3        1 MOL     -0.296574
    100 C34        -5.9240   -6.6170   -1.0850 c3        1 MOL     -0.165001
    101 H42        -5.1860   -2.8570   -2.4610 hn        1 MOL      0.184350
    102 H43        -3.2660   -2.8930   -0.1880 h1        1 MOL      0.184868
    103 H44        -3.9730   -5.2660    0.0970 hc        1 MOL      0.017119
    104 H45        -4.9280   -5.3500   -2.4920 hc        1 MOL     -0.009051
    105 H46        -6.3820   -4.7900   -1.7720 hc        1 MOL     -0.009051
    106 H47        -6.2670   -3.1820    0.1300 hc        1 MOL      0.082206
    107 H48        -6.3960   -4.7030    1.0330 hc        1 MOL      0.082206
    108 H49        -5.0580   -3.5220    1.3000 hc        1 MOL      0.082206
    109 H50        -6.2650   -7.2680   -1.8790 hc        1 MOL      0.037301
    110 H51        -5.0610   -7.1710   -0.7240 hc        1 MOL      0.037301
    111 H52        -6.5900   -6.5410   -0.2210 hc        1 MOL      0.037301
    112 N10        -2.0890   -3.2920   -2.8040 n         1 MOL     -0.073842
    113 C35        -0.9850   -3.6740   -3.7670 c3        1 MOL     -0.124723
    114 C36         0.4430   -3.7680   -3.2010 c         1 MOL      0.307608
    115 O17         1.3670   -4.3600   -3.8080 o         1 MOL     -0.497148
    116 C37        -0.9550   -2.7380   -4.9950 c3        1 MOL      0.252037
    117 C38        -0.8180   -1.2850   -4.5730 c3        1 MOL     -0.159320
    118 O18        -2.0470   -2.9460   -5.7880 oh        1 MOL     -0.620964
    119 H53        -2.6120   -2.4590   -3.0180 hn        1 MOL      0.109817
    120 H54        -1.1890   -4.6690   -4.1860 h1        1 MOL      0.150964
    121 H55        -0.0600   -2.9550   -5.5880 h1        1 MOL      0.060546
    122 H56        -2.2180   -2.1560   -6.3030 ho        1 MOL      0.388202
    123 H57         0.2110   -1.1830   -4.2100 hc        1 MOL      0.049900
    124 H58        -0.7980   -0.6500   -5.4570 hc        1 MOL      0.049900
    125 H59        -1.4970   -1.0050   -3.7810 hc        1 MOL      0.049900
    126 N11         0.6950   -3.0730   -2.0490 n         1 MOL     -0.043156
    127 C39         1.9500   -2.7650   -1.3970 c3        1 MOL      0.050355
    128 C40         2.9300   -1.9850   -2.2970 c         1 MOL      0.250653
    129 O19         2.6200   -1.8430   -3.4860 o         1 MOL     -0.470948
    130 C41         2.6410   -4.1030   -0.9240 c3        1 MOL      0.394006
    131 C42         1.5840   -4.9800   -0.2880 c3        1 MOL     -0.285650
    132 O20         3.6840   -3.8520   -0.0130 oh        1 MOL     -0.627701
    133 H60        -0.1700   -2.7500   -1.6450 hn        1 MOL      0.075524
    134 H61         1.7770   -1.9960   -0.6400 h1        1 MOL      0.044787
    135 H62         3.0220   -4.6780   -1.7710 h1        1 MOL     -0.010973
    136 H63         4.2280   -4.6490    0.0060 ho        1 MOL      0.395075
    137 H64         0.7990   -4.4300    0.2300 hc        1 MOL      0.061329
    138 H65         1.1620   -5.6300   -1.0520 hc        1 MOL      0.061329
    139 H66         2.0800   -5.6350    0.4300 hc        1 MOL      0.061329
    140 N12         4.0240   -1.4500   -1.7730 n         1 MOL     -0.051688
    141 C43         5.0130   -0.6590   -2.5040 c3        1 MOL     -0.113723
    142 C44         4.6460    0.8710   -2.3590 c         1 MOL      0.595480
    143 O21         5.0070    1.6900   -3.2210 o         1 MOL     -0.601872
    144 C45         6.5530   -0.8950   -2.2130 c3        1 MOL      0.116182
    145 C46         6.9670   -2.3570   -2.1320 c3        1 MOL      0.027491
    146 C47         8.4170   -2.5190   -1.6800 c3        1 MOL     -0.091064
    147 C48         8.7220   -4.0020   -1.6120 c3        1 MOL      0.129202
    148 N13        10.1070   -4.2350   -1.3010 n4        1 MOL     -0.330347
    149 H67         4.0560   -1.6190   -0.7820 hn        1 MOL      0.108775
    150 H68         4.9290   -0.9080   -3.5640 h1        1 MOL      0.079131
    151 H69         6.7570   -0.4650   -1.2300 hc        1 MOL     -0.013719
    152 H70         7.2410   -0.4450   -2.9370 hc        1 MOL     -0.013719
    153 H71         6.8470   -2.7410   -3.1360 hc        1 MOL     -0.005730
    154 H72         6.2750   -2.9160   -1.5030 hc        1 MOL     -0.005730
    155 H73         8.4660   -2.1640   -0.6540 hc        1 MOL      0.034118
    156 H74         9.1680   -2.0250   -2.3110 hc        1 MOL      0.034118
    157 H75         8.3870   -4.4260   -2.5560 hx        1 MOL      0.051117
    158 H76         8.1100   -4.4710   -0.8430 hx        1 MOL      0.051117
    159 H77        10.3210   -5.2160   -1.3300 hn        1 MOL      0.312268
    160 H78        10.7770   -3.8710   -1.9700 hn        1 MOL      0.312268
    161 H79        10.3920   -3.8230   -0.4210 hn        1 MOL      0.312268
    162 N14         4.0740    1.2770   -1.2180 n         1 MOL     -0.395130
    163 C49         4.0860    2.7050   -0.7080 c3        1 MOL     -0.162692
    164 C50         5.5030    3.0690   -0.4180 c         1 MOL      0.529564
    165 O22         6.1830    2.3370    0.3810 o         1 MOL     -0.564483
    166 C51         3.1530    2.9960    0.4960 c3        1 MOL      0.367630
    167 C52         3.0210    4.4750    0.7870 c3        1 MOL     -0.235104
    168 C53         2.7760    5.3100   -0.4390 c         1 MOL      0.607972
    169 O23         3.8350    5.7150   -1.0390 o         1 MOL     -0.715238
    170 O24         1.5750    5.5660   -0.8190 o         1 MOL     -0.715238
    171 H80         3.9370    0.5190   -0.5700 hn        1 MOL      0.180177
    172 H81         3.8330    3.3300   -1.5660 h1        1 MOL      0.168918
    173 H82         3.5520    2.5290    1.4000 hc        1 MOL     -0.056502
    174 H83         2.1740    2.5300    0.4270 hc        1 MOL     -0.056502
    175 H84         3.9310    4.8580    1.2470 hc        1 MOL      0.049701
    176 H85         2.1460    4.6600    1.4220 hc        1 MOL      0.049701
    177 N15         6.0140    4.1570   -0.9040 n         1 MOL     -0.305870
    178 C54         7.3940    4.6320   -0.5950 c3        1 MOL     -0.130418
    179 H86         7.4660    5.6990   -0.8070 h1        1 MOL      0.077311
    180 H87         7.6120    4.4560    0.4590 h1        1 MOL      0.077311
    181 H88         8.1110    4.0910   -1.2110 h1        1 MOL      0.077311
    182 H89         5.3850    4.7810   -1.3800 hn        1 MOL      0.337594
    183 Ca1        -0.8570    5.5960   -1.2300 Ca        1 MOL      1.719399
    184 O25         0.1270    7.6970    0.3490 oh        1 MOL     -0.811165
    185 H90         0.9840    7.4280    0.0040 ho        1 MOL      0.407403
    186 H91         0.1600    8.6560    0.3480 ho        1 MOL      0.407403
    187 O26        -0.9590    8.0670   -2.1520 oh        1 MOL     -0.811165
    188 H92        -1.6840    8.6630   -1.9740 ho        1 MOL      0.407403
    189 H93        -0.2060    8.6360   -2.2800 ho        1 MOL      0.407403
    190 O27        -2.8170    5.3420   -3.0480 oh        1 MOL     -0.811165
    191 H94        -2.8010    5.0800   -3.9720 ho        1 MOL      0.407403
    192 H95        -3.7080    5.1180   -2.7620 ho        1 MOL      0.407403
    193 O28         0.0820    5.7140   -3.7540 oh        1 MOL     -0.811165
    194 H96        -0.0630    5.9500   -4.6750 ho        1 MOL      0.407403
    195 H97         1.0320    5.7040   -3.6560 ho        1 MOL      0.407403
@<TRIPOS>BOND
     1    1    2 1   
     2    1    4 1   
     3    1    5 1   
     4    1    6 1   
     5    2    3 2   
     6    2    7 1   
     7    7    8 1   
     8    7   15 1   
     9    8    9 1   
    10    8   11 1   
    11    8   16 1   
    12    9   10 2   
    13    9   19 1   
    14   11   12 1   
    15   11   17 1   
    16   11   18 1   
    17   12   13 1   
    18   12   14 1   
    19   19   20 1   
    20   19   28 1   
    21   20   21 1   
    22   20   23 1   
    23   20   29 1   
    24   21   22 2   
    25   21   41 1   
    26   23   24 1   
    27   23   30 1   
    28   23   31 1   
    29   24   25 1   
    30   24   32 1   
    31   24   33 1   
    32   25   26 1   
    33   25   34 1   
    34   25   35 1   
    35   26   27 1   
    36   26   36 1   
    37   26   37 1   
    38   27   38 1   
    39   27   39 1   
    40   27   40 1   
    41   41   42 1   
    42   41   49 1   
    43   42   43 1   
    44   42   45 1   
    45   42   50 1   
    46   43   44 2   
    47   43   53 1   
    48   45   46 1   
    49   45   51 1   
    50   45   52 1   
    51   46   47 1   
    52   46   48 1   
    53   53   54 1   
    54   53   57 1   
    55   54   55 1   
    56   54   58 1   
    57   54   59 1   
    58   55   56 2   
    59   55   60 1   
    60   60   61 1   
    61   60   68 1   
    62   61   62 1   
    63   61   64 1   
    64   61   69 1   
    65   62   63 2   
    66   62   72 1   
    67   64   65 1   
    68   64   70 1   
    69   64   71 1   
    70   65   66 1   
    71   65   67 1   
    72   72   73 1   
    73   72   76 1   
    74   73   74 1   
    75   73   77 1   
    76   73   78 1   
    77   74   75 2   
    78   74   79 1   
    79   79   80 1   
    80   79   86 1   
    81   80   81 1   
    82   80   83 1   
    83   80   87 1   
    84   81   82 2   
    85   81   93 1   
    86   83   84 1   
    87   83   85 1   
    88   83   88 1   
    89   84   90 1   
    90   84   91 1   
    91   84   92 1   
    92   85   89 1   
    93   93   94 1   
    94   93  101 1   
    95   94   95 1   
    96   94   97 1   
    97   94  102 1   
    98   95   96 2   
    99   95  112 1   
   100   97   98 1   
   101   97   99 1   
   102   97  103 1   
   103   98  100 1   
   104   98  104 1   
   105   98  105 1   
   106   99  106 1   
   107   99  107 1   
   108   99  108 1   
   109  100  109 1   
   110  100  110 1   
   111  100  111 1   
   112  112  113 1   
   113  112  119 1   
   114  113  114 1   
   115  113  116 1   
   116  113  120 1   
   117  114  115 2   
   118  114  126 1   
   119  116  117 1   
   120  116  118 1   
   121  116  121 1   
   122  117  123 1   
   123  117  124 1   
   124  117  125 1   
   125  118  122 1   
   126  126  127 1   
   127  126  133 1   
   128  127  128 1   
   129  127  130 1   
   130  127  134 1   
   131  128  129 2   
   132  128  140 1   
   133  130  131 1   
   134  130  132 1   
   135  130  135 1   
   136  131  137 1   
   137  131  138 1   
   138  131  139 1   
   139  132  136 1   
   140  140  141 1   
   141  140  149 1   
   142  141  142 1   
   143  141  144 1   
   144  141  150 1   
   145  142  143 2   
   146  142  162 1   
   147  144  145 1   
   148  144  151 1   
   149  144  152 1   
   150  145  146 1   
   151  145  153 1   
   152  145  154 1   
   153  146  147 1   
   154  146  155 1   
   155  146  156 1   
   156  147  148 1   
   157  147  157 1   
   158  147  158 1   
   159  148  159 1   
   160  148  160 1   
   161  148  161 1   
   162  162  163 1   
   163  162  171 1   
   164  163  164 1   
   165  163  166 1   
   166  163  172 1   
   167  164  165 2   
   168  164  177 1   
   169  166  167 1   
   170  166  173 1   
   171  166  174 1   
   172  167  168 1   
   173  167  175 1   
   174  167  176 1   
   175  168  169 1   
   176  168  170 1   
   177  177  178 1   
   178  177  182 1   
   179  178  179 1   
   180  178  180 1   
   181  178  181 1   
   182  184  185 1   
   183  184  186 1   
   184  187  188 1   
   185  187  189 1   
   186  190  191 1   
   187  190  192 1   
   188  193  194 1   
   189  193  195 1   
@<TRIPOS>SUBSTRUCTURE
     1 MOL         1 TEMP              0 ****  ****    0 ROOT
