@<TRIPOS>MOLECULE
MOL
  185   180     1     0     0
SMALL
resp


@<TRIPOS>ATOM
      1 C1         -5.3400    0.7940   -3.7400 c3        1 MOL     -0.489358
      2 C2         -6.1420    0.9650   -2.4250 c         1 MOL      0.604756
      3 O1         -5.5570    0.7250   -1.3570 o         1 MOL     -0.515755
      4 H1         -5.9760    1.0450   -4.5880 hc        1 MOL      0.133182
      5 H2         -4.4740    1.4560   -3.7270 hc        1 MOL      0.133182
      6 H3         -5.0060   -0.2400   -3.8310 hc        1 MOL      0.133182
      7 N1         -7.4320    1.2750   -2.4570 n         1 MOL     -0.415534
      8 C3         -8.2300    1.5690   -1.2570 c3        1 MOL      0.237904
      9 C4         -8.3160    0.4640   -0.0780 c         1 MOL      0.330201
     10 O2         -8.6540    0.8050    1.0830 o         1 MOL     -0.457514
     11 C5         -8.1080    2.9570   -0.5700 c3        1 MOL     -0.107152
     12 C6         -7.9850    4.1120   -1.5310 c         1 MOL      0.663029
     13 O3         -7.3950    5.1950   -1.1550 o         1 MOL     -0.683921
     14 O4         -8.3970    3.9320   -2.6750 o         1 MOL     -0.683921
     15 H4         -7.8290    1.3070   -3.3850 hn        1 MOL      0.280409
     16 H5         -9.2460    1.5990   -1.6410 h1        1 MOL     -0.019040
     17 H6         -7.2480    2.8880    0.1020 hc        1 MOL      0.033547
     18 H7         -8.9520    3.1930    0.0930 hc        1 MOL      0.033547
     19 N2         -7.9760   -0.8040   -0.4610 n         1 MOL     -0.346319
     20 C7         -7.9760   -1.8140    0.5140 c3        1 MOL     -0.047476
     21 C8         -6.6170   -2.1390    1.1240 c         1 MOL      0.664522
     22 O5         -6.5510   -3.0090    2.0050 o         1 MOL     -0.574558
     23 C9         -8.4980   -2.9800   -0.3430 c3        1 MOL     -0.156851
     24 C10       -10.0210   -3.1890   -0.4140 c3        1 MOL      0.277020
     25 C11       -10.4820   -4.6900   -0.7550 c3        1 MOL     -0.164292
     26 C12       -12.0450   -4.7810   -0.9110 c3        1 MOL     -0.056541
     27 N3        -12.4930   -3.8120   -1.8980 n4        1 MOL     -0.135652
     28 H8         -7.8800   -0.9440   -1.4530 hn        1 MOL      0.182046
     29 H9         -8.6010   -1.5810    1.3800 h1        1 MOL      0.112266
     30 H10        -8.0790   -3.8480    0.1920 hc        1 MOL      0.043364
     31 H11        -8.0660   -3.1470   -1.3240 hc        1 MOL      0.043364
     32 H12       -10.2540   -2.4910   -1.2210 hc        1 MOL     -0.049454
     33 H13       -10.5750   -2.8340    0.4480 hc        1 MOL     -0.049454
     34 H14       -10.1240   -5.3400    0.0500 hc        1 MOL      0.076087
     35 H15       -10.0170   -4.9150   -1.7080 hc        1 MOL      0.076087
     36 H16       -12.5750   -4.4750   -0.0040 hx        1 MOL      0.110582
     37 H17       -12.4150   -5.7600   -1.2240 hx        1 MOL      0.110582
     38 H18       -11.9930   -3.7720   -2.7710 hn        1 MOL      0.255215
     39 H19       -13.4840   -3.9680   -2.0150 hn        1 MOL      0.255215
     40 H20       -12.4500   -2.8770   -1.5250 hn        1 MOL      0.255215
     41 N4         -5.5450   -1.4910    0.5710 n         1 MOL     -0.438589
     42 C13        -4.1320   -1.8120    0.7490 c3        1 MOL     -0.092408
     43 C14        -3.7410   -1.6720    2.2440 c         1 MOL      0.471569
     44 O6         -4.1190   -0.6480    2.8420 o         1 MOL     -0.457723
     45 C15        -3.3320   -0.7920   -0.0230 c3        1 MOL     -0.256604
     46 C16        -1.8820   -1.0700   -0.0910 c         1 MOL      0.755934
     47 O7         -1.0770   -0.1180   -0.2660 o         1 MOL     -0.736435
     48 O8         -1.4570   -2.2460   -0.0570 o         1 MOL     -0.736435
     49 H21        -5.6360   -0.6980   -0.0330 hn        1 MOL      0.315368
     50 H22        -3.9750   -2.8140    0.3460 h1        1 MOL      0.094242
     51 H23        -3.5210    0.1950    0.3920 hc        1 MOL      0.116509
     52 H24        -3.6440   -0.8420   -1.0690 hc        1 MOL      0.116509
     53 N5         -3.1100   -2.6890    2.8220 n         1 MOL     -0.275981
     54 C17        -2.9780   -2.8760    4.2990 c3        1 MOL     -0.120052
     55 C18        -1.9150   -2.0100    4.9420 c         1 MOL      0.534827
     56 O9         -2.1690   -1.6070    6.0620 o         1 MOL     -0.547554
     57 H25        -2.9810   -3.5170    2.2480 hn        1 MOL      0.258408
     58 H26        -2.6820   -3.9010    4.5020 h1        1 MOL      0.098782
     59 H27        -3.9220   -2.7450    4.8160 h1        1 MOL      0.098782
     60 N6         -0.9290   -1.5850    4.1610 n         1 MOL     -0.437511
     61 C19        -0.0190   -0.4370    4.4510 c3        1 MOL      0.058708
     62 C20        -0.3840    0.8800    3.7840 c         1 MOL      0.464645
     63 O10         0.5100    1.6500    3.5700 o         1 MOL     -0.521326
     64 C21         1.4600   -0.9740    4.2240 c3        1 MOL     -0.263136
     65 C22         1.5680   -1.7320    2.9150 c         1 MOL      0.485567
     66 N7          2.0060   -2.9940    2.9010 n         1 MOL     -0.649172
     67 O11         1.0470   -1.3200    1.8900 o         1 MOL     -0.570619
     68 H28        -0.8010   -2.0740    3.2920 hn        1 MOL      0.293891
     69 H29         0.0010   -0.1270    5.5010 h1        1 MOL      0.096175
     70 H30         1.7280   -1.5740    5.0920 hc        1 MOL      0.116875
     71 H31         2.1850   -0.1560    4.2950 hc        1 MOL      0.116875
     72 H32         2.4640   -3.4240    3.6870 hn        1 MOL      0.321393
     73 H33         2.2420   -3.2670    1.9630 hn        1 MOL      0.321393
     74 N8         -1.6330    1.0310    3.3310 n         1 MOL     -0.288739
     75 C23        -2.1460    2.1340    2.4280 c3        1 MOL     -0.024338
     76 C24        -1.0800    3.0070    1.8900 c         1 MOL      0.722587
     77 O12        -0.8430    4.0800    2.4180 o         1 MOL     -0.581649
     78 H34        -2.2600    0.2620    3.5130 hn        1 MOL      0.223691
     79 H35        -2.8010    2.7730    3.0220 h1        1 MOL      0.047459
     80 H36        -2.6890    1.6780    1.6040 h1        1 MOL      0.047459
     81 N9         -0.4000    2.5540    0.8360 n         1 MOL     -0.471448
     82 C25         0.4630    3.3070   -0.1120 c3        1 MOL      0.291701
     83 C26         1.7030    2.4290   -0.4240 c         1 MOL      0.456937
     84 O13         1.6110    1.2210   -0.3690 o         1 MOL     -0.468220
     85 C27        -0.2120    3.7050   -1.4140 c3        1 MOL     -0.165291
     86 C28        -1.5010    4.3670   -1.1010 ca        1 MOL     -0.021522
     87 C29        -1.5270    5.7600   -1.0170 ca        1 MOL     -0.110241
     88 C30        -2.7190    3.6960   -1.2270 ca        1 MOL     -0.110241
     89 C31        -2.7470    6.4590   -0.8430 ca        1 MOL     -0.314200
     90 C32        -3.9400    4.3740   -0.9340 ca        1 MOL     -0.314200
     91 C33        -3.9810    5.7480   -0.7110 ca        1 MOL      0.439796
     92 O14        -5.0310    6.5660   -0.4720 oh        1 MOL     -0.519627
     93 H37        -0.7270    1.6500    0.5470 hn        1 MOL      0.167093
     94 H38         0.8630    4.1740    0.3990 h1        1 MOL      0.007741
     95 H39        -0.4290    2.7990   -1.9740 hc        1 MOL      0.043897
     96 H40         0.4040    4.3800   -1.9980 hc        1 MOL      0.043897
     97 H41        -0.6520    6.3840   -1.1540 ha        1 MOL      0.098873
     98 H42        -2.7820    2.6430   -1.4470 ha        1 MOL      0.098873
     99 H43        -2.7290    7.5310   -0.6930 ha        1 MOL      0.155305
    100 H44        -4.8610    3.8240   -0.8920 ha        1 MOL      0.155305
    101 H45        -5.8570    6.1500   -0.7480 ho        1 MOL      0.376884
    102 N10         2.8350    3.0090   -0.8210 n         1 MOL     -0.501850
    103 C34         4.0730    2.2940   -1.2370 c3        1 MOL      0.400720
    104 C35         4.9930    2.0110   -0.0290 c         1 MOL      0.166916
    105 O15         5.3810    0.8600    0.1930 o         1 MOL     -0.300136
    106 C36         4.7850    3.1200   -2.3290 c3        1 MOL     -0.001676
    107 C37         3.9340    3.3050   -3.6620 c3        1 MOL     -0.209091
    108 C38         6.0950    2.4590   -2.7440 c3        1 MOL     -0.308620
    109 C39         3.4300    1.9940   -4.3970 c3        1 MOL     -0.118754
    110 H46         2.7960    3.9960   -1.0470 hn        1 MOL      0.268085
    111 H47         3.8480    1.3020   -1.6300 h1        1 MOL     -0.082886
    112 H48         5.1640    4.0740   -1.9460 hc        1 MOL      0.016533
    113 H49         4.5930    3.8440   -4.3420 hc        1 MOL      0.088131
    114 H50         3.0510    3.9050   -3.4370 hc        1 MOL      0.088131
    115 H51         5.9710    1.3900   -2.9230 hc        1 MOL      0.092834
    116 H52         6.5920    2.8060   -3.6450 hc        1 MOL      0.092834
    117 H53         6.7480    2.6020   -1.8720 hc        1 MOL      0.092834
    118 H54         2.8560    2.2070   -5.3020 hc        1 MOL      0.051866
    119 H55         4.2390    1.3660   -4.7750 hc        1 MOL      0.051866
    120 H56         2.9040    1.4120   -3.6440 hc        1 MOL      0.051866
    121 N11         5.3640    3.0000    0.8100 n         1 MOL     -0.163141
    122 C40         6.2970    2.9710    2.0060 c3        1 MOL      0.061834
    123 C41         7.5160    2.0480    1.9100 c         1 MOL      0.249463
    124 O16         7.8580    1.3400    2.9360 o         1 MOL     -0.462495
    125 C42         6.6630    4.4450    2.3580 c3        1 MOL      0.288237
    126 O17         5.6600    5.4000    1.9640 oh        1 MOL     -0.609604
    127 H57         4.9690    3.9170    0.6690 hn        1 MOL      0.155624
    128 H58         5.7250    2.6960    2.8930 h1        1 MOL      0.103322
    129 H59         7.6040    4.7410    1.8860 h1        1 MOL     -0.010081
    130 H60         6.8290    4.4650    3.4410 h1        1 MOL     -0.010081
    131 H61         5.9250    6.3250    1.9320 ho        1 MOL      0.418194
    132 N12         8.0960    2.0150    0.6890 n         1 MOL     -0.177462
    133 C43         9.2270    1.1920    0.1470 c3        1 MOL      0.189340
    134 C44         8.9980   -0.3450    0.3700 c         1 MOL      0.432778
    135 O18         9.9380   -1.1370    0.4060 o         1 MOL     -0.529841
    136 C45        10.5580    1.7320    0.6350 c3        1 MOL     -0.396016
    137 H62         7.6430    2.6190    0.0230 hn        1 MOL      0.178318
    138 H63         9.2400    1.3080   -0.9280 h1        1 MOL      0.040081
    139 H64        11.4260    1.1530    0.3110 hc        1 MOL      0.116424
    140 H65        10.5690    2.7970    0.4130 hc        1 MOL      0.116424
    141 H66        10.6480    1.6440    1.7210 hc        1 MOL      0.116424
    142 N13         7.7360   -0.7400    0.3460 n         1 MOL     -0.271261
    143 C46         7.2570   -2.1030    0.6510 c3        1 MOL      0.353861
    144 C47         6.3310   -2.6010   -0.5110 c         1 MOL      0.256708
    145 O19         5.9180   -1.8520   -1.4180 o         1 MOL     -0.443161
    146 C48         6.5550   -2.0990    2.0780 c3        1 MOL     -0.353772
    147 H67         7.0500   -0.0270    0.1430 hn        1 MOL     -0.002768
    148 H68         8.0980   -2.7940    0.6440 h1        1 MOL      0.006365
    149 H69         5.5700   -1.6300    2.0390 hc        1 MOL      0.101910
    150 H70         6.4050   -3.1460    2.3060 hc        1 MOL      0.101910
    151 H71         7.0700   -1.5330    2.8620 hc        1 MOL      0.101910
    152 N14         6.1050   -3.8800   -0.6340 n         1 MOL     -0.364729
    153 C49         5.4560   -4.5010   -1.7850 c3        1 MOL     -0.102493
    154 C50         6.0880   -4.1020   -3.1760 c         1 MOL      0.464610
    155 O20         5.3440   -4.1960   -4.1500 o         1 MOL     -0.488629
    156 C51         3.9590   -4.1950   -1.8100 c3        1 MOL      0.378158
    157 C52         3.3700   -5.1950   -0.8000 c3        1 MOL     -0.440705
    158 C53         1.9040   -4.9520   -0.4540 c         1 MOL      0.755340
    159 O21         0.9630   -5.6600   -0.8700 o         1 MOL     -0.687864
    160 O22         1.6340   -3.8710    0.0860 o         1 MOL     -0.687864
    161 H72         6.3610   -4.5390    0.0940 hn        1 MOL      0.296882
    162 H73         5.5160   -5.5800   -1.6680 h1        1 MOL      0.059405
    163 H74         3.5810   -4.4750   -2.8020 hc        1 MOL     -0.069096
    164 H75         3.7260   -3.1460   -1.6430 hc        1 MOL     -0.069096
    165 H76         3.9050   -5.0110    0.1350 hc        1 MOL      0.085911
    166 H77         3.4350   -6.1890   -1.2320 hc        1 MOL      0.085911
    167 N15         7.3830   -3.8780   -3.1680 n         1 MOL     -0.333236
    168 C54         8.0990   -3.4340   -4.3580 c3        1 MOL      0.048171
    169 H78         7.4860   -3.6180   -5.2400 h1        1 MOL      0.038904
    170 H79         8.3100   -2.3670   -4.2780 h1        1 MOL      0.038904
    171 H80         9.0350   -3.9850   -4.4460 h1        1 MOL      0.038904
    172 H81         7.9030   -4.0640   -2.3260 hn        1 MOL      0.266793
    173 Ca1         1.1800   -1.3630   -0.7910 Ca        1 MOL      1.740122
    174 O23         0.1930   -3.3590   -2.1420 oh        1 MOL     -0.824659
    175 H82         0.3520   -3.7360   -3.0060 ho        1 MOL      0.404110
    176 H83         0.4130   -4.0690   -1.5280 ho        1 MOL      0.404110
    177 O24         0.0660   -0.0670   -2.9060 oh        1 MOL     -0.824659
    178 H84        -0.6790   -0.5970   -3.1880 ho        1 MOL      0.404110
    179 H85        -0.0580    0.7640   -3.3680 ho        1 MOL      0.404110
    180 O25         3.6740   -1.1730   -0.0220 oh        1 MOL     -0.824659
    181 H86         4.2780   -1.5440   -0.6680 ho        1 MOL      0.404110
    182 H87         4.0460   -0.3200    0.2000 ho        1 MOL      0.404110
    183 O26         2.7980   -1.2780   -3.0110 oh        1 MOL     -0.824659
    184 H88         3.7140   -1.0820   -3.1590 ho        1 MOL      0.404110
    185 H89         2.3490   -0.9440   -3.7940 ho        1 MOL      0.404110
@<TRIPOS>BOND
     1    1    2 1   
     2    1    4 1   
     3    1    5 1   
     4    1    6 1   
     5    2    3 2   
     6    2    7 1   
     7    7    8 1   
     8    7   15 1   
     9    8    9 1   
    10    8   11 1   
    11    8   16 1   
    12    9   10 2   
    13    9   19 1   
    14   11   12 1   
    15   11   17 1   
    16   11   18 1   
    17   12   13 1   
    18   12   14 1   
    19   19   20 1   
    20   19   28 1   
    21   20   21 1   
    22   20   23 1   
    23   20   29 1   
    24   21   22 2   
    25   21   41 1   
    26   23   24 1   
    27   23   30 1   
    28   23   31 1   
    29   24   25 1   
    30   24   32 1   
    31   24   33 1   
    32   25   26 1   
    33   25   34 1   
    34   25   35 1   
    35   26   27 1   
    36   26   36 1   
    37   26   37 1   
    38   27   38 1   
    39   27   39 1   
    40   27   40 1   
    41   41   42 1   
    42   41   49 1   
    43   42   43 1   
    44   42   45 1   
    45   42   50 1   
    46   43   44 2   
    47   43   53 1   
    48   45   46 1   
    49   45   51 1   
    50   45   52 1   
    51   46   47 1   
    52   46   48 1   
    53   53   54 1   
    54   53   57 1   
    55   54   55 1   
    56   54   58 1   
    57   54   59 1   
    58   55   56 2   
    59   55   60 1   
    60   60   61 1   
    61   60   68 1   
    62   61   62 1   
    63   61   64 1   
    64   61   69 1   
    65   62   63 2   
    66   62   74 1   
    67   64   65 1   
    68   64   70 1   
    69   64   71 1   
    70   65   66 1   
    71   65   67 2   
    72   66   72 1   
    73   66   73 1   
    74   74   75 1   
    75   74   78 1   
    76   75   76 1   
    77   75   79 1   
    78   75   80 1   
    79   76   77 2   
    80   76   81 1   
    81   81   82 1   
    82   81   93 1   
    83   82   83 1   
    84   82   85 1   
    85   82   94 1   
    86   83   84 2   
    87   83  102 1   
    88   85   86 1   
    89   85   95 1   
    90   85   96 1   
    91   86   87 ar  
    92   86   88 ar  
    93   87   89 ar  
    94   87   97 1   
    95   88   90 ar  
    96   88   98 1   
    97   89   91 ar  
    98   89   99 1   
    99   90   91 ar  
   100   90  100 1   
   101   91   92 1   
   102   92  101 1   
   103  102  103 1   
   104  102  110 1   
   105  103  104 1   
   106  103  106 1   
   107  103  111 1   
   108  104  105 2   
   109  104  121 1   
   110  106  107 1   
   111  106  108 1   
   112  106  112 1   
   113  107  109 1   
   114  107  113 1   
   115  107  114 1   
   116  108  115 1   
   117  108  116 1   
   118  108  117 1   
   119  109  118 1   
   120  109  119 1   
   121  109  120 1   
   122  121  122 1   
   123  121  127 1   
   124  122  123 1   
   125  122  125 1   
   126  122  128 1   
   127  123  124 2   
   128  123  132 1   
   129  125  126 1   
   130  125  129 1   
   131  125  130 1   
   132  126  131 1   
   133  132  133 1   
   134  132  137 1   
   135  133  134 1   
   136  133  136 1   
   137  133  138 1   
   138  134  135 2   
   139  134  142 1   
   140  136  139 1   
   141  136  140 1   
   142  136  141 1   
   143  142  143 1   
   144  142  147 1   
   145  143  144 1   
   146  143  146 1   
   147  143  148 1   
   148  144  145 2   
   149  144  152 1   
   150  146  149 1   
   151  146  150 1   
   152  146  151 1   
   153  152  153 1   
   154  152  161 1   
   155  153  154 1   
   156  153  156 1   
   157  153  162 1   
   158  154  155 2   
   159  154  167 1   
   160  156  157 1   
   161  156  163 1   
   162  156  164 1   
   163  157  158 1   
   164  157  165 1   
   165  157  166 1   
   166  158  159 1   
   167  158  160 1   
   168  167  168 1   
   169  167  172 1   
   170  168  169 1   
   171  168  170 1   
   172  168  171 1   
   173  174  175 1   
   174  174  176 1   
   175  177  178 1   
   176  177  179 1   
   177  180  181 1   
   178  180  182 1   
   179  183  184 1   
   180  183  185 1   
@<TRIPOS>SUBSTRUCTURE
     1 MOL         1 TEMP              0 ****  ****    0 ROOT
