@<TRIPOS>MOLECULE
MOL
  192   187     1     0     0
SMALL
resp


@<TRIPOS>ATOM
      1 C1          4.4680   -2.0550   -2.6850 c3        1 MOL     -0.388514
      2 C2          3.7830   -2.7220   -1.5020 c         1 MOL      0.730852
      3 O1          2.6950   -2.3270   -1.1180 o         1 MOL     -0.559469
      4 H1          4.1070   -2.5000   -3.6120 hc        1 MOL      0.094034
      5 H2          4.2420   -0.9890   -2.6830 hc        1 MOL      0.094034
      6 H3          5.5460   -2.1980   -2.6100 hc        1 MOL      0.094034
      7 N1          4.3450   -3.7850   -0.9390 n         1 MOL     -0.375332
      8 C3          3.7630   -4.4310    0.2230 c3        1 MOL      0.026520
      9 C4          2.2600   -4.8630    0.2300 c         1 MOL      0.648698
     10 O2          1.5520   -4.7110    1.2420 o         1 MOL     -0.530381
     11 C5          4.2830   -3.6430    1.4870 c3        1 MOL     -0.311117
     12 C6          5.7690   -3.2990    1.6250 c         1 MOL      0.787573
     13 O3          6.2740   -2.2320    2.1240 o         1 MOL     -0.784641
     14 O4          6.5760   -4.1370    1.1950 o         1 MOL     -0.784641
     15 H4          5.2620   -3.9650   -1.3150 hn        1 MOL      0.205978
     16 H5          4.3380   -5.3400    0.4100 h1        1 MOL      0.069895
     17 H6          3.8740   -4.1920    2.3280 hc        1 MOL      0.100924
     18 H7          3.8520   -2.6410    1.5260 hc        1 MOL      0.100924
     19 N2          1.8000   -5.3070   -0.9360 n         1 MOL     -0.626424
     20 C7          0.3680   -5.6480   -1.2090 c3        1 MOL      0.212076
     21 C8         -0.0960   -6.9810   -0.5560 c         1 MOL      0.553533
     22 O5          0.7220   -7.8310   -0.1610 o         1 MOL     -0.600321
     23 C9          0.0890   -5.7020   -2.7040 c3        1 MOL     -0.007130
     24 C10         0.8980   -6.7760   -3.4240 c3        1 MOL      0.107027
     25 C11         0.3380   -4.3320   -3.2940 c3        1 MOL     -0.150330
     26 C12         0.1100   -7.4030   -4.5650 c3        1 MOL     -0.202180
     27 H8          2.4010   -5.3380   -1.7510 hn        1 MOL      0.231497
     28 H9         -0.2830   -4.9210   -0.7220 h1        1 MOL      0.107000
     29 H10        -0.9680   -5.9570   -2.7740 hc        1 MOL      0.085272
     30 H11         1.1030   -7.5420   -2.6780 hc        1 MOL     -0.016398
     31 H12         1.8660   -6.4410   -3.8010 hc        1 MOL     -0.016398
     32 H13        -0.0860   -3.4550   -2.8070 hc        1 MOL      0.027424
     33 H14         1.3770   -4.0310   -3.3360 hc        1 MOL      0.027424
     34 H15         0.1270   -4.2390   -4.3620 hc        1 MOL      0.027424
     35 H16        -0.9660   -7.3140   -4.3980 hc        1 MOL      0.037525
     36 H17         0.2700   -6.8140   -5.4700 hc        1 MOL      0.037525
     37 H18         0.4630   -8.3840   -4.8740 hc        1 MOL      0.037525
     38 N3         -1.3610   -7.2170   -0.3880 n         1 MOL     -0.500567
     39 C13        -2.5640   -6.3610   -0.4270 c3        1 MOL      0.034398
     40 C14        -3.1610   -6.4470    1.0250 c         1 MOL      0.622464
     41 O6         -2.8590   -7.3410    1.8300 o         1 MOL     -0.564747
     42 C15        -3.5200   -6.8140   -1.5590 c3        1 MOL     -0.249347
     43 C16        -4.7330   -5.9200   -1.6740 c         1 MOL      0.691199
     44 O7         -5.8180   -6.4720   -1.9960 o         1 MOL     -0.696460
     45 O8         -4.5950   -4.7210   -1.3570 o         1 MOL     -0.696460
     46 H19        -1.6150   -8.1210   -0.0010 hn        1 MOL      0.297372
     47 H20        -2.2600   -5.3320   -0.6080 h1        1 MOL     -0.013069
     48 H21        -3.8100   -7.8510   -1.3820 hc        1 MOL      0.053424
     49 H22        -3.0140   -6.8990   -2.5230 hc        1 MOL      0.053424
     50 N4         -3.9850   -5.4160    1.3600 n         1 MOL     -0.386725
     51 C17        -4.4630   -5.1340    2.7060 c3        1 MOL     -0.073450
     52 C18        -5.6520   -4.2160    2.7090 c         1 MOL      0.543651
     53 O9         -6.7940   -4.6480    2.6710 o         1 MOL     -0.544698
     54 H23        -4.3210   -4.8750    0.5720 hn        1 MOL      0.264918
     55 H24        -3.6110   -4.7380    3.2520 h1        1 MOL      0.064847
     56 H25        -4.7450   -6.0360    3.2550 h1        1 MOL      0.064847
     57 N5         -5.4040   -2.9270    2.8400 n         1 MOL     -0.378517
     58 C19        -6.3650   -1.9120    3.3770 c3        1 MOL     -0.040783
     59 C20        -7.2580   -1.4120    2.2430 c         1 MOL      0.439477
     60 O10        -8.3910   -1.0290    2.6610 o         1 MOL     -0.592187
     61 C21        -5.7220   -0.6490    3.9890 c3        1 MOL     -0.130096
     62 C22        -4.6430   -0.1750    3.0740 c         1 MOL      0.697305
     63 O11        -4.9590    0.5290    2.1020 o         1 MOL     -0.677969
     64 O12        -3.4950   -0.5660    3.3220 o         1 MOL     -0.677969
     65 H26        -4.4580   -2.6100    2.9940 hn        1 MOL      0.220597
     66 H27        -6.9360   -2.4910    4.0990 h1        1 MOL      0.098710
     67 H28        -5.2530   -0.8470    4.9480 hc        1 MOL      0.031516
     68 H29        -6.5000    0.0780    4.2210 hc        1 MOL      0.031516
     69 N6         -6.8670   -1.4110    0.9720 n         1 MOL     -0.104553
     70 C23        -7.7440   -0.9670   -0.0800 c3        1 MOL     -0.219743
     71 C24        -7.7650    0.5180   -0.4510 c         1 MOL      0.571049
     72 O13        -8.4200    0.8390   -1.4360 o         1 MOL     -0.590517
     73 H30        -5.9220   -1.7320    0.8400 hn        1 MOL      0.237401
     74 H31        -8.8090   -1.1780   -0.0050 h1        1 MOL      0.110326
     75 H32        -7.4150   -1.5210   -0.9610 h1        1 MOL      0.110326
     76 N7         -7.2400    1.4300    0.3580 n         1 MOL     -0.111357
     77 C25        -7.3710    2.8560    0.3670 c3        1 MOL     -0.202745
     78 C26        -7.0320    3.5810   -0.9730 c         1 MOL      0.686234
     79 O14        -7.4290    4.6560   -1.2730 o         1 MOL     -0.529104
     80 C27        -8.6720    3.3530    0.9150 c3        1 MOL      0.020759
     81 C28        -8.7860    2.9000    2.3940 c3        1 MOL     -0.145607
     82 C29        -8.3930    3.9860    3.3160 c         1 MOL      0.626198
     83 N8         -8.6140    3.8090    4.6330 n         1 MOL     -0.825673
     84 O15        -7.7960    5.0100    2.9350 o         1 MOL     -0.534884
     85 H33        -6.6630    1.0250    1.0890 hn        1 MOL      0.069806
     86 H34        -6.6270    3.1150    1.1220 h1        1 MOL      0.152416
     87 H35        -9.4460    2.9350    0.2680 hc        1 MOL      0.012049
     88 H36        -8.7800    4.4270    0.8600 hc        1 MOL      0.012049
     89 H37        -8.1930    2.0290    2.6510 hc        1 MOL      0.068435
     90 H38        -9.7760    2.5190    2.6170 hc        1 MOL      0.068435
     91 H39        -9.0450    2.9980    5.0560 hn        1 MOL      0.354438
     92 H40        -8.3710    4.5850    5.2330 hn        1 MOL      0.354438
     93 N9         -6.1710    2.9830   -1.7470 n         1 MOL     -0.529395
     94 C30        -5.7920    3.4360   -3.0930 c3        1 MOL     -0.178489
     95 C31        -4.2800    3.2690   -3.3400 c         1 MOL      0.535867
     96 O16        -3.7890    3.7420   -4.3850 o         1 MOL     -0.592667
     97 C32        -6.5370    2.8610   -4.2780 c3        1 MOL      0.376701
     98 C33        -6.3670    1.3210   -4.4720 c3        1 MOL     -0.386831
     99 C34        -8.0600    3.0640   -4.2770 c3        1 MOL     -0.386831
    100 H41        -5.7510    2.1110   -1.4810 hn        1 MOL      0.297278
    101 H42        -5.9160    4.5190   -3.0690 h1        1 MOL      0.134391
    102 H43        -6.2600    3.3430   -5.2110 hc        1 MOL     -0.028710
    103 H44        -6.7690    0.7510   -3.6340 hc        1 MOL      0.088669
    104 H45        -6.8870    1.0500   -5.3890 hc        1 MOL      0.088669
    105 H46        -5.3000    1.0900   -4.4990 hc        1 MOL      0.088669
    106 H47        -8.4620    2.7160   -5.2290 hc        1 MOL      0.088669
    107 H48        -8.5070    2.5780   -3.4080 hc        1 MOL      0.088669
    108 H49        -8.2410    4.1400   -4.2240 hc        1 MOL      0.088669
    109 N10        -3.4940    2.4340   -2.6060 n         1 MOL     -0.301069
    110 C35        -2.0550    2.2380   -2.7480 c3        1 MOL      0.211461
    111 C36        -1.3580    2.8570   -1.5540 c         1 MOL      0.492514
    112 O17        -1.9820    3.1270   -0.5190 o         1 MOL     -0.545503
    113 C37        -1.9100    0.7280   -2.7960 c3        1 MOL     -0.283758
    114 C38        -0.4590    0.3260   -2.9140 c         1 MOL      0.622506
    115 N11         0.0270   -0.6680   -2.1750 n         1 MOL     -0.681506
    116 O18         0.3180    0.8850   -3.6740 o         1 MOL     -0.574649
    117 H50        -3.9970    1.9590   -1.8610 hn        1 MOL      0.197488
    118 H51        -1.6960    2.7180   -3.6590 h1        1 MOL      0.061697
    119 H52        -2.4880    0.3360   -3.6330 hc        1 MOL      0.093584
    120 H53        -2.2860    0.2400   -1.8980 hc        1 MOL      0.093584
    121 H54        -0.4750   -1.1640   -1.4570 hn        1 MOL      0.340395
    122 H55         1.0240   -0.8120   -2.2740 hn        1 MOL      0.340395
    123 N12        -0.0200    2.9820   -1.5590 n         1 MOL     -0.571173
    124 C39         0.7110    3.2870   -0.3190 c3        1 MOL      0.450422
    125 C40         2.0370    3.9910   -0.6440 c         1 MOL      0.412007
    126 O19         2.6030    3.6770   -1.6940 o         1 MOL     -0.533000
    127 C41         1.0040    2.0020    0.5600 c3        1 MOL     -0.100889
    128 C42         1.3680    2.4260    2.0150 ca        1 MOL      0.024844
    129 C43         2.6840    2.4640    2.4310 ca        1 MOL     -0.142900
    130 C44         0.3170    2.7040    2.9060 ca        1 MOL     -0.142900
    131 C45         3.0250    2.9100    3.7360 ca        1 MOL     -0.256421
    132 C46         0.6730    3.1140    4.1920 ca        1 MOL     -0.256421
    133 C47         2.0160    3.2080    4.6540 ca        1 MOL      0.323640
    134 O20         2.1980    3.5660    5.9290 oh        1 MOL     -0.491529
    135 H56         0.4710    2.6460   -2.3780 hn        1 MOL      0.267892
    136 H57         0.0560    3.9650    0.2220 h1        1 MOL     -0.006464
    137 H58         1.7720    1.4120    0.0580 hc        1 MOL      0.049610
    138 H59         0.0680    1.4450    0.5650 hc        1 MOL      0.049610
    139 H60         3.4620    2.2420    1.7100 ha        1 MOL      0.167629
    140 H61        -0.6960    2.6980    2.5290 ha        1 MOL      0.167629
    141 H62         4.0510    2.9670    4.0610 ha        1 MOL      0.139308
    142 H63        -0.1110    3.4020    4.8840 ha        1 MOL      0.139308
    143 H64         3.1360    3.5480    6.1660 ho        1 MOL      0.362046
    144 N13         2.5650    4.8730    0.2700 n         1 MOL     -0.595274
    145 C48         3.8460    5.5690    0.0950 c3        1 MOL      0.347173
    146 C49         4.9350    4.9710    1.0920 c         1 MOL      0.402176
    147 O21         5.0460    5.2830    2.2540 o         1 MOL     -0.562351
    148 C50         3.6050    7.0390    0.4690 c3        1 MOL     -0.187119
    149 C51         3.2050    7.9240   -0.6770 c3        1 MOL     -0.084462
    150 C52         3.3600    9.4790   -0.3500 c         1 MOL      0.631563
    151 O22         2.9790    9.8180    0.8160 o         1 MOL     -0.684500
    152 O23         3.6000   10.2890   -1.2800 o         1 MOL     -0.684500
    153 H65         2.0660    4.8880    1.1470 hn        1 MOL      0.312291
    154 H66         4.1490    5.5230   -0.9420 h1        1 MOL      0.071387
    155 H67         4.4810    7.5290    0.8800 hc        1 MOL      0.062822
    156 H68         2.8190    7.1480    1.2160 hc        1 MOL      0.062822
    157 H69         2.2060    7.6250   -0.9980 hc        1 MOL      0.001615
    158 H70         3.8530    7.7090   -1.5290 hc        1 MOL      0.001615
    159 N14         5.8080    4.0510    0.6900 n         1 MOL     -0.233191
    160 C53         5.8490    3.1830   -0.5050 c3        1 MOL     -0.723124
    161 C54         6.3750    3.9980   -1.7350 c         1 MOL      0.718196
    162 O24         7.2320    4.8450   -1.5460 o         1 MOL     -0.557106
    163 C55         6.6690    1.8880   -0.1780 c3        1 MOL      0.222991
    164 C56         6.6690    0.8750   -1.3470 c3        1 MOL      0.069555
    165 C57         7.3520   -0.4090   -0.8660 c         1 MOL      0.621003
    166 O25         6.5710   -1.2770   -0.3490 o         1 MOL     -0.757215
    167 O26         8.5690   -0.6420   -0.8960 o         1 MOL     -0.757215
    168 H71         6.5020    3.8230    1.3950 hn        1 MOL      0.262679
    169 H72         4.8470    2.9260   -0.8270 h1        1 MOL      0.229800
    170 H73         6.2280    1.4870    0.7450 hc        1 MOL      0.023105
    171 H74         7.6960    2.2050    0.0080 hc        1 MOL      0.023105
    172 H75         7.2790    1.2850   -2.1540 hc        1 MOL     -0.036494
    173 H76         5.6800    0.8320   -1.7940 hc        1 MOL     -0.036494
    174 N15         5.7400    3.8880   -2.9240 n         1 MOL     -0.339866
    175 C58         5.9970    4.5520   -4.2170 c3        1 MOL     -0.187224
    176 H77         5.7370    3.8730   -5.0300 h1        1 MOL      0.089914
    177 H78         5.3900    5.4550   -4.2900 h1        1 MOL      0.089914
    178 H79         7.0520    4.8150   -4.2880 h1        1 MOL      0.089914
    179 H80         4.9430    3.2590   -2.8970 hn        1 MOL      0.279006
    180 Ca1         8.5650   -2.5470    0.9990 Ca        1 MOL      1.702841
    181 O27         9.6570   -2.7020    3.5220 oh        1 MOL     -0.816882
    182 H81        10.2780   -2.4160    4.1960 ho        1 MOL      0.402153
    183 H82         8.9650   -3.1450    3.9980 ho        1 MOL      0.402153
    184 O28         8.9840   -0.2620    2.0820 oh        1 MOL     -0.816882
    185 H83         9.6110    0.3380    1.6780 ho        1 MOL      0.402153
    186 H84         8.6600    0.2050    2.8580 ho        1 MOL      0.402153
    187 O29        10.0900   -5.0350    1.5020 oh        1 MOL     -0.816882
    188 H85         9.8220   -5.4020    2.3450 ho        1 MOL      0.402153
    189 H86        10.7660   -5.6360    1.1810 ho        1 MOL      0.402153
    190 O30        11.0450   -2.4810    0.2630 oh        1 MOL     -0.816882
    191 H87        11.5290   -1.7520   -0.1260 ho        1 MOL      0.402153
    192 H88        11.5970   -3.2460    0.1100 ho        1 MOL      0.402153
@<TRIPOS>BOND
     1    1    2 1   
     2    1    4 1   
     3    1    5 1   
     4    1    6 1   
     5    2    3 2   
     6    2    7 1   
     7    7    8 1   
     8    7   15 1   
     9    8    9 1   
    10    8   11 1   
    11    8   16 1   
    12    9   10 2   
    13    9   19 1   
    14   11   12 1   
    15   11   17 1   
    16   11   18 1   
    17   12   13 1   
    18   12   14 1   
    19   19   20 1   
    20   19   27 1   
    21   20   21 1   
    22   20   23 1   
    23   20   28 1   
    24   21   22 2   
    25   21   38 1   
    26   23   24 1   
    27   23   25 1   
    28   23   29 1   
    29   24   26 1   
    30   24   30 1   
    31   24   31 1   
    32   25   32 1   
    33   25   33 1   
    34   25   34 1   
    35   26   35 1   
    36   26   36 1   
    37   26   37 1   
    38   38   39 1   
    39   38   46 1   
    40   39   40 1   
    41   39   42 1   
    42   39   47 1   
    43   40   41 2   
    44   40   50 1   
    45   42   43 1   
    46   42   48 1   
    47   42   49 1   
    48   43   44 1   
    49   43   45 1   
    50   50   51 1   
    51   50   54 1   
    52   51   52 1   
    53   51   55 1   
    54   51   56 1   
    55   52   53 2   
    56   52   57 1   
    57   57   58 1   
    58   57   65 1   
    59   58   59 1   
    60   58   61 1   
    61   58   66 1   
    62   59   60 2   
    63   59   69 1   
    64   61   62 1   
    65   61   67 1   
    66   61   68 1   
    67   62   63 1   
    68   62   64 1   
    69   69   70 1   
    70   69   73 1   
    71   70   71 1   
    72   70   74 1   
    73   70   75 1   
    74   71   72 2   
    75   71   76 1   
    76   76   77 1   
    77   76   85 1   
    78   77   78 1   
    79   77   80 1   
    80   77   86 1   
    81   78   79 2   
    82   78   93 1   
    83   80   81 1   
    84   80   87 1   
    85   80   88 1   
    86   81   82 1   
    87   81   89 1   
    88   81   90 1   
    89   82   83 1   
    90   82   84 2   
    91   83   91 1   
    92   83   92 1   
    93   93   94 1   
    94   93  100 1   
    95   94   95 1   
    96   94   97 1   
    97   94  101 1   
    98   95   96 2   
    99   95  109 1   
   100   97   98 1   
   101   97   99 1   
   102   97  102 1   
   103   98  103 1   
   104   98  104 1   
   105   98  105 1   
   106   99  106 1   
   107   99  107 1   
   108   99  108 1   
   109  109  110 1   
   110  109  117 1   
   111  110  111 1   
   112  110  113 1   
   113  110  118 1   
   114  111  112 2   
   115  111  123 1   
   116  113  114 1   
   117  113  119 1   
   118  113  120 1   
   119  114  115 1   
   120  114  116 2   
   121  115  121 1   
   122  115  122 1   
   123  123  124 1   
   124  123  135 1   
   125  124  125 1   
   126  124  127 1   
   127  124  136 1   
   128  125  126 2   
   129  125  144 1   
   130  127  128 1   
   131  127  137 1   
   132  127  138 1   
   133  128  129 ar  
   134  128  130 ar  
   135  129  131 ar  
   136  129  139 1   
   137  130  132 ar  
   138  130  140 1   
   139  131  133 ar  
   140  131  141 1   
   141  132  133 ar  
   142  132  142 1   
   143  133  134 1   
   144  134  143 1   
   145  144  145 1   
   146  144  153 1   
   147  145  146 1   
   148  145  148 1   
   149  145  154 1   
   150  146  147 2   
   151  146  159 1   
   152  148  149 1   
   153  148  155 1   
   154  148  156 1   
   155  149  150 1   
   156  149  157 1   
   157  149  158 1   
   158  150  151 1   
   159  150  152 1   
   160  159  160 1   
   161  159  168 1   
   162  160  161 1   
   163  160  163 1   
   164  160  169 1   
   165  161  162 2   
   166  161  174 1   
   167  163  164 1   
   168  163  170 1   
   169  163  171 1   
   170  164  165 1   
   171  164  172 1   
   172  164  173 1   
   173  165  166 1   
   174  165  167 1   
   175  174  175 1   
   176  174  179 1   
   177  175  176 1   
   178  175  177 1   
   179  175  178 1   
   180  181  182 1   
   181  181  183 1   
   182  184  185 1   
   183  184  186 1   
   184  187  188 1   
   185  187  189 1   
   186  190  191 1   
   187  190  192 1   
@<TRIPOS>SUBSTRUCTURE
     1 MOL         1 TEMP              0 ****  ****    0 ROOT
