@<TRIPOS>MOLECULE
MOL
  175   173     1     0     0
SMALL
resp


@<TRIPOS>ATOM
      1 C1         -6.1010    8.0150    1.3100 c3        1 MOL     -0.402026
      2 C2         -7.2560    7.2910    0.6170 c         1 MOL      0.696066
      3 O1         -7.5850    7.6280   -0.5020 o         1 MOL     -0.575903
      4 H1         -6.5010    8.7450    2.0140 hc        1 MOL      0.093874
      5 H2         -5.4880    7.2920    1.8460 hc        1 MOL      0.093874
      6 H3         -5.4920    8.5260    0.5640 hc        1 MOL      0.093874
      7 N1         -7.9170    6.3420    1.2770 n         1 MOL     -0.487955
      8 C3         -8.9830    5.4990    0.5140 c3        1 MOL      0.029744
      9 C4         -8.3610    4.4790   -0.4690 c         1 MOL      0.512380
     10 O2         -8.8750    4.0620   -1.5190 o         1 MOL     -0.525307
     11 C5         -9.7240    4.7620    1.7370 c3        1 MOL     -0.376629
     12 C6        -10.8580    3.8100    1.2480 c         1 MOL      0.820994
     13 O3        -10.6900    2.5980    1.2960 o         1 MOL     -0.747512
     14 O4        -12.0110    4.2450    0.9760 o         1 MOL     -0.747512
     15 H4         -7.5560    5.9930    2.1520 hn        1 MOL      0.285327
     16 H5         -9.7210    6.0890   -0.0250 h1        1 MOL      0.109962
     17 H6        -10.0660    5.4580    2.5060 hc        1 MOL      0.072825
     18 H7         -8.9170    4.2260    2.2260 hc        1 MOL      0.072825
     19 N2         -7.1280    4.0380   -0.1550 n         1 MOL     -0.541410
     20 C7         -6.3230    3.1870   -0.9280 c3        1 MOL      0.480918
     21 C8         -5.3690    2.3860   -0.0290 c         1 MOL      0.367701
     22 O5         -4.9990    2.9050    0.9830 o         1 MOL     -0.513651
     23 C9         -5.6310    3.9940   -2.0290 c3        1 MOL     -0.291077
     24 H8         -6.7060    4.4410    0.6750 hn        1 MOL      0.253143
     25 H9         -6.9430    2.5160   -1.5300 h1        1 MOL     -0.011998
     26 H10        -5.2010    3.3960   -2.8230 hc        1 MOL      0.073476
     27 H11        -6.3940    4.5890   -2.5460 hc        1 MOL      0.073476
     28 H12        -4.8720    4.6360   -1.5980 hc        1 MOL      0.073476
     29 N3         -4.8760    1.1860   -0.3870 n         1 MOL     -0.330494
     30 C10        -5.3090    0.2810   -1.4590 c3        1 MOL     -0.168325
     31 C11        -5.6820   -1.0700   -0.7530 c         1 MOL      0.522794
     32 O6         -5.0060   -1.5130    0.1450 o         1 MOL     -0.516429
     33 C12        -4.3050    0.0660   -2.5730 c3        1 MOL     -0.103983
     34 C13        -2.8480   -0.3360   -2.2150 c         1 MOL      0.724176
     35 O7         -2.1370    0.3930   -1.4710 o         1 MOL     -0.732592
     36 O8         -2.3600   -1.4570   -2.5940 o         1 MOL     -0.732592
     37 H13        -4.2530    0.8650    0.3550 hn        1 MOL      0.276225
     38 H14        -6.2350    0.6430   -1.9030 h1        1 MOL      0.088349
     39 H15        -4.2510    0.9810   -3.1690 hc        1 MOL      0.027121
     40 H16        -4.7250   -0.7340   -3.1940 hc        1 MOL      0.027121
     41 N4         -6.6770   -1.6820   -1.3910 n         1 MOL     -0.340217
     42 C14        -7.2170   -2.9360   -0.9900 c3        1 MOL     -0.006055
     43 C15        -6.9130   -4.0960   -1.9470 c         1 MOL      0.563737
     44 O9         -7.8030   -4.5420   -2.6300 o         1 MOL     -0.550246
     45 H17        -7.0780   -1.1830   -2.1670 hn        1 MOL      0.304913
     46 H18        -8.2990   -2.8460   -0.9150 h1        1 MOL      0.063911
     47 H19        -6.6770   -3.1890   -0.0760 h1        1 MOL      0.063911
     48 N5         -5.6790   -4.7050   -2.0520 n         1 MOL     -0.549290
     49 C16        -4.3850   -4.4110   -1.3370 c3        1 MOL      0.040127
     50 C17        -4.4050   -4.8580    0.1700 c         1 MOL      0.618601
     51 O10        -4.6860   -6.0080    0.3930 o         1 MOL     -0.543950
     52 C18        -3.2710   -5.0490   -2.1360 c3        1 MOL     -0.183481
     53 C19        -1.9260   -4.5900   -1.7410 c         1 MOL      0.696417
     54 N6         -0.9920   -4.9110   -2.5950 n         1 MOL     -0.751544
     55 O11        -1.6760   -3.8750   -0.7750 o         1 MOL     -0.625492
     56 H20        -5.6950   -5.5970   -2.5250 hn        1 MOL      0.317436
     57 H21        -4.1530   -3.3560   -1.4440 h1        1 MOL      0.092505
     58 H22        -3.3700   -4.7850   -3.1870 hc        1 MOL      0.069221
     59 H23        -3.1810   -6.1370   -2.0720 hc        1 MOL      0.069221
     60 H24        -1.1600   -5.2660   -3.5210 hn        1 MOL      0.358704
     61 H25        -0.0880   -4.7060   -2.1920 hn        1 MOL      0.358704
     62 N7         -3.9430   -3.9940    1.1640 n         1 MOL     -0.304687
     63 C20        -3.6630   -4.3750    2.5120 c3        1 MOL     -0.359918
     64 C21        -2.2670   -4.9550    2.9170 c         1 MOL      0.562418
     65 O12        -2.1250   -5.5690    3.9800 o         1 MOL     -0.576538
     66 H26        -3.6470   -3.0700    0.8910 hn        1 MOL      0.290929
     67 H27        -4.4050   -5.1550    2.7200 h1        1 MOL      0.135161
     68 H28        -3.7700   -3.4370    3.0600 h1        1 MOL      0.135161
     69 N8         -1.3100   -4.8270    2.0230 n         1 MOL     -0.120496
     70 C22         0.1180   -5.0600    2.2040 c3        1 MOL     -0.152572
     71 C23         0.9230   -3.8060    1.9020 c         1 MOL      0.439815
     72 O13         0.5280   -2.9670    1.0700 o         1 MOL     -0.587480
     73 C24         0.6100   -6.3230    1.4270 c3        1 MOL      0.565873
     74 C25        -0.2200   -7.5710    1.6760 c3        1 MOL     -0.569695
     75 O14         0.4190   -6.1940    0.0370 oh        1 MOL     -0.717166
     76 H29        -1.5850   -4.4800    1.1070 hn        1 MOL      0.173539
     77 H30         0.3490   -5.3340    3.2340 h1        1 MOL      0.046472
     78 H31         1.6640   -6.4710    1.6940 h1        1 MOL     -0.055721
     79 H32         1.0650   -5.5690   -0.3050 ho        1 MOL      0.481811
     80 H33         0.3950   -8.3330    1.1940 hc        1 MOL      0.141320
     81 H34        -0.2540   -7.6930    2.7590 hc        1 MOL      0.141320
     82 H35        -1.2170   -7.4340    1.2600 hc        1 MOL      0.141320
     83 N9          2.0610   -3.6320    2.5880 n         1 MOL     -0.361961
     84 C26         3.0740   -2.5220    2.4570 c3        1 MOL      0.225394
     85 C27         4.0280   -2.8160    1.2990 c         1 MOL      0.386266
     86 O15         4.8660   -3.6920    1.4830 o         1 MOL     -0.553915
     87 C28         3.8740   -2.2510    3.7440 c3        1 MOL      0.092220
     88 C29         4.7500   -1.0830    3.5820 c3        1 MOL      0.159135
     89 C30         2.8980   -2.0790    4.9670 c3        1 MOL     -0.342596
     90 C31         4.1000    0.2960    3.3270 c3        1 MOL     -0.101090
     91 H36         2.3560   -4.4020    3.1680 hn        1 MOL      0.252279
     92 H37         2.4950   -1.6080    2.3160 h1        1 MOL      0.034786
     93 H38         4.5530   -3.0950    3.8120 hc        1 MOL     -0.013228
     94 H39         5.3770   -1.3030    2.7140 hc        1 MOL     -0.063414
     95 H40         5.3940   -1.0060    4.4570 hc        1 MOL     -0.063414
     96 H41         2.2970   -1.1750    4.8960 hc        1 MOL      0.082815
     97 H42         2.2400   -2.9110    5.1970 hc        1 MOL      0.082815
     98 H43         3.5500   -2.0140    5.8450 hc        1 MOL      0.082815
     99 H44         4.8150    1.0850    3.1260 hc        1 MOL      0.013546
    100 H45         3.4560    0.2000    2.4470 hc        1 MOL      0.013546
    101 H46         3.5650    0.4610    4.2580 hc        1 MOL      0.013546
    102 N10         3.8900   -2.2350    0.0670 n         1 MOL     -0.226824
    103 C32         4.5120   -2.5650   -1.1350 c3        1 MOL      0.365639
    104 C33         5.5940   -1.6130   -1.6220 c         1 MOL      0.417935
    105 O16         6.2440   -1.8930   -2.6400 o         1 MOL     -0.565486
    106 C34         3.5100   -2.9530   -2.2070 c3        1 MOL     -0.472605
    107 C35         2.2150   -3.6340   -1.6860 c         1 MOL      0.874698
    108 O17         2.2570   -4.6410   -0.9720 o         1 MOL     -0.731994
    109 O18         1.1010   -3.0590   -2.0810 o         1 MOL     -0.731994
    110 H47         3.1100   -1.6010   -0.0520 hn        1 MOL      0.077435
    111 H48         5.1130   -3.4700   -0.9890 h1        1 MOL      0.023592
    112 H49         4.0160   -3.6640   -2.8780 hc        1 MOL      0.102598
    113 H50         3.3560   -1.9710   -2.6440 hc        1 MOL      0.102598
    114 N11         5.8250   -0.5890   -0.8500 n         1 MOL     -0.492690
    115 C36         6.8410    0.4260   -1.1160 c3        1 MOL      0.407636
    116 C37         6.5170    1.8650   -0.5000 c         1 MOL      0.335333
    117 O19         5.9710    1.8910    0.5870 o         1 MOL     -0.449387
    118 C38         8.2240   -0.0340   -0.5140 c3        1 MOL     -0.572776
    119 C39         9.5020    0.8680   -0.4750 ca        1 MOL      0.250614
    120 C40         9.9160    1.5230    0.6670 ca        1 MOL     -0.184916
    121 C41        10.2650    0.8950   -1.6330 ca        1 MOL     -0.184916
    122 C42        11.1190    2.2800    0.6760 ca        1 MOL     -0.126367
    123 C43        11.4350    1.6800   -1.6760 ca        1 MOL     -0.126367
    124 C44        11.9070    2.3120   -0.5000 ca        1 MOL     -0.122276
    125 H51         5.2130   -0.5040   -0.0560 hn        1 MOL      0.290803
    126 H52         6.8250    0.4880   -2.2000 h1        1 MOL      0.027325
    127 H53         8.5010   -0.9460   -1.0350 hc        1 MOL      0.172789
    128 H54         8.0560   -0.2160    0.5470 hc        1 MOL      0.172789
    129 H55         9.2770    1.5250    1.5310 ha        1 MOL      0.133992
    130 H56        10.0390    0.3490   -2.5380 ha        1 MOL      0.133992
    131 H57        11.4040    2.6560    1.6530 ha        1 MOL      0.111661
    132 H58        12.0100    1.9070   -2.5630 ha        1 MOL      0.111661
    133 H59        12.8200    2.8770   -0.4320 ha        1 MOL      0.106068
    134 N12         6.8450    3.0060   -1.1560 n         1 MOL     -0.194459
    135 C45         6.8420    4.4180   -0.6710 c3        1 MOL     -0.037488
    136 C46         5.4850    4.9890   -0.3120 c         1 MOL      0.413379
    137 O20         5.3880    6.1510    0.0780 o         1 MOL     -0.534605
    138 C47         7.4690    5.2800   -1.8400 c3        1 MOL     -0.076410
    139 C48         8.2250    4.3370   -2.6840 c3        1 MOL      0.057590
    140 C49         7.4040    3.0900   -2.5420 c3        1 MOL     -0.040740
    141 H60         7.4720    4.5040    0.2090 h1        1 MOL      0.107428
    142 H61         6.6980    5.7550   -2.4460 hc        1 MOL      0.058918
    143 H62         8.1480    6.0410   -1.4480 hc        1 MOL      0.058918
    144 H63         8.2770    4.7390   -3.6930 hc        1 MOL      0.012568
    145 H64         9.2450    4.2090   -2.3370 hc        1 MOL      0.012568
    146 H65         6.6130    2.9500   -3.2870 h1        1 MOL      0.043880
    147 H66         8.0600    2.2420   -2.7050 h1        1 MOL      0.043880
    148 N13         4.3570    4.2160   -0.3860 n         1 MOL     -0.186189
    149 C50         3.0150    4.5570    0.0730 c3        1 MOL     -0.329833
    150 C51         2.9320    4.9950    1.5330 c         1 MOL      0.633996
    151 O21         2.0220    5.6790    1.8990 o         1 MOL     -0.549223
    152 C52         2.0650    3.3700   -0.0720 c3        1 MOL     -0.035621
    153 C53         2.5460    2.0470    0.6170 c3        1 MOL      0.181361
    154 C54         1.7460    0.8080    0.2000 c         1 MOL      0.557904
    155 O22         0.5230    0.8160    0.3920 o         1 MOL     -0.688541
    156 O23         2.2340   -0.0700   -0.5400 o         1 MOL     -0.688541
    157 H67         4.4620    3.2980   -0.7930 hn        1 MOL      0.203715
    158 H68         2.6370    5.3880   -0.5240 h1        1 MOL      0.169672
    159 H69         1.9590    3.0810   -1.1250 hc        1 MOL      0.053417
    160 H70         1.0280    3.5130    0.2360 hc        1 MOL      0.053417
    161 H71         2.3860    2.1420    1.6940 hc        1 MOL     -0.071983
    162 H72         3.6030    1.8940    0.4450 hc        1 MOL     -0.071983
    163 N14         4.0060    4.8300    2.3470 n         1 MOL     -0.227617
    164 C55         4.0370    5.2840    3.7660 c3        1 MOL     -0.207859
    165 H73         3.5100    6.2340    3.8550 h1        1 MOL      0.094779
    166 H74         3.5530    4.5390    4.3970 h1        1 MOL      0.094779
    167 H75         5.0720    5.4140    4.0840 h1        1 MOL      0.094779
    168 H76         4.8070    4.3880    1.9180 hn        1 MOL      0.205329
    169 Ca1        -0.3360   -1.4110   -0.8040 Ca        1 MOL      1.729932
    170 O24         0.5060   -0.2170   -3.2990 oh        1 MOL     -0.832384
    171 H77         1.3990   -0.2210   -3.6350 ho        1 MOL      0.402804
    172 H78         0.1820    0.6720   -3.4680 ho        1 MOL      0.402804
    173 O25        -2.3060   -1.1930    0.9070 oh        1 MOL     -0.832384
    174 H79        -3.2110   -1.3060    0.6140 ho        1 MOL      0.402804
    175 H80        -2.2870   -0.2920    1.2460 ho        1 MOL      0.402804
@<TRIPOS>BOND
     1    1    2 1   
     2    1    4 1   
     3    1    5 1   
     4    1    6 1   
     5    2    3 2   
     6    2    7 1   
     7    7    8 1   
     8    7   15 1   
     9    8    9 1   
    10    8   11 1   
    11    8   16 1   
    12    9   10 2   
    13    9   19 1   
    14   11   12 1   
    15   11   17 1   
    16   11   18 1   
    17   12   13 1   
    18   12   14 1   
    19   19   20 1   
    20   19   24 1   
    21   20   21 1   
    22   20   23 1   
    23   20   25 1   
    24   21   22 2   
    25   21   29 1   
    26   23   26 1   
    27   23   27 1   
    28   23   28 1   
    29   29   30 1   
    30   29   37 1   
    31   30   31 1   
    32   30   33 1   
    33   30   38 1   
    34   31   32 2   
    35   31   41 1   
    36   33   34 1   
    37   33   39 1   
    38   33   40 1   
    39   34   35 1   
    40   34   36 1   
    41   41   42 1   
    42   41   45 1   
    43   42   43 1   
    44   42   46 1   
    45   42   47 1   
    46   43   44 2   
    47   43   48 1   
    48   48   49 1   
    49   48   56 1   
    50   49   50 1   
    51   49   52 1   
    52   49   57 1   
    53   50   51 2   
    54   50   62 1   
    55   52   53 1   
    56   52   58 1   
    57   52   59 1   
    58   53   54 1   
    59   53   55 2   
    60   54   60 1   
    61   54   61 1   
    62   62   63 1   
    63   62   66 1   
    64   63   64 1   
    65   63   67 1   
    66   63   68 1   
    67   64   65 2   
    68   64   69 1   
    69   69   70 1   
    70   69   76 1   
    71   70   71 1   
    72   70   73 1   
    73   70   77 1   
    74   71   72 2   
    75   71   83 1   
    76   73   74 1   
    77   73   75 1   
    78   73   78 1   
    79   74   80 1   
    80   74   81 1   
    81   74   82 1   
    82   75   79 1   
    83   83   84 1   
    84   83   91 1   
    85   84   85 1   
    86   84   87 1   
    87   84   92 1   
    88   85   86 2   
    89   85  102 1   
    90   87   88 1   
    91   87   89 1   
    92   87   93 1   
    93   88   90 1   
    94   88   94 1   
    95   88   95 1   
    96   89   96 1   
    97   89   97 1   
    98   89   98 1   
    99   90   99 1   
   100   90  100 1   
   101   90  101 1   
   102  102  103 1   
   103  102  110 1   
   104  103  104 1   
   105  103  106 1   
   106  103  111 1   
   107  104  105 2   
   108  104  114 1   
   109  106  107 1   
   110  106  112 1   
   111  106  113 1   
   112  107  108 1   
   113  107  109 1   
   114  114  115 1   
   115  114  125 1   
   116  115  116 1   
   117  115  118 1   
   118  115  126 1   
   119  116  117 2   
   120  116  134 1   
   121  118  119 1   
   122  118  127 1   
   123  118  128 1   
   124  119  120 ar  
   125  119  121 ar  
   126  120  122 ar  
   127  120  129 1   
   128  121  123 ar  
   129  121  130 1   
   130  122  124 ar  
   131  122  131 1   
   132  123  124 ar  
   133  123  132 1   
   134  124  133 1   
   135  134  135 1   
   136  134  140 1   
   137  135  136 1   
   138  135  138 1   
   139  135  141 1   
   140  136  137 2   
   141  136  148 1   
   142  138  139 1   
   143  138  142 1   
   144  138  143 1   
   145  139  140 1   
   146  139  144 1   
   147  139  145 1   
   148  140  146 1   
   149  140  147 1   
   150  148  149 1   
   151  148  157 1   
   152  149  150 1   
   153  149  152 1   
   154  149  158 1   
   155  150  151 2   
   156  150  163 1   
   157  152  153 1   
   158  152  159 1   
   159  152  160 1   
   160  153  154 1   
   161  153  161 1   
   162  153  162 1   
   163  154  155 1   
   164  154  156 1   
   165  163  164 1   
   166  163  168 1   
   167  164  165 1   
   168  164  166 1   
   169  164  167 1   
   170  170  171 1   
   171  170  172 1   
   172  173  174 1   
   173  173  175 1   
@<TRIPOS>SUBSTRUCTURE
     1 MOL         1 TEMP              0 ****  ****    0 ROOT
