@<TRIPOS>MOLECULE
MOL
  186   183     1     0     0
SMALL
resp


@<TRIPOS>ATOM
      1 C1        -12.6130    3.8700    3.5540 c3        1 MOL     -0.163920
      2 C2        -12.2560    3.0100    2.2850 c         1 MOL      0.490540
      3 O1        -12.6260    1.8740    2.2250 o         1 MOL     -0.531086
      4 H1        -11.7520    4.4770    3.8340 hc        1 MOL      0.039788
      5 H2        -13.4570    4.5220    3.3260 hc        1 MOL      0.039788
      6 H3        -12.8760    3.2090    4.3790 hc        1 MOL      0.039788
      7 N1        -11.5540    3.5520    1.3300 n         1 MOL     -0.027860
      8 C3        -11.0090    2.8520    0.1410 c3        1 MOL     -1.082723
      9 C4         -9.8350    1.8740    0.2930 c         1 MOL      0.875371
     10 O2         -9.0810    1.9660    1.2190 o         1 MOL     -0.618553
     11 C5        -10.6550    3.9520   -0.8280 c3        1 MOL      0.164142
     12 C6         -9.6900    4.9610   -0.2100 c         1 MOL      0.710490
     13 O3         -9.1680    4.7730    0.9050 o         1 MOL     -0.727574
     14 O4         -9.3170    5.9090   -0.9220 o         1 MOL     -0.727574
     15 H4        -11.2470    4.4950    1.4820 hn        1 MOL      0.162747
     16 H5        -11.8280    2.3700   -0.3940 h1        1 MOL      0.301094
     17 H6        -11.6010    4.4000   -1.1100 hc        1 MOL      0.050961
     18 H7        -10.1780    3.4910   -1.6990 hc        1 MOL      0.050961
     19 N2         -9.5990    0.9850   -0.6750 n         1 MOL     -0.116044
     20 C7         -9.0120   -0.3780   -0.6470 c3        1 MOL     -0.457618
     21 C8         -7.4660   -0.4690   -0.5350 c         1 MOL      0.614366
     22 O5         -6.8750   -1.5600   -0.2940 o         1 MOL     -0.534991
     23 C9         -9.5120   -1.1950   -1.9600 c3        1 MOL     -0.337582
     24 C10       -11.0350   -1.2360   -2.2160 c3        1 MOL      0.127607
     25 C11       -11.7750   -2.0150   -1.0860 c3        1 MOL     -0.118097
     26 C12       -12.9680   -2.6090   -1.8870 c3        1 MOL     -0.017957
     27 N3        -13.7770   -3.5480   -1.0830 n4        1 MOL     -0.119852
     28 H8        -10.1120    1.2790   -1.4960 hn        1 MOL      0.238347
     29 H9         -9.4240   -0.9110    0.2090 h1        1 MOL      0.187876
     30 H10        -9.1310   -2.1940   -1.7240 hc        1 MOL      0.175395
     31 H11        -9.0920   -0.9000   -2.9220 hc        1 MOL      0.175395
     32 H12       -11.1720   -1.7530   -3.1650 hc        1 MOL     -0.007369
     33 H13       -11.4470   -0.2330   -2.2680 hc        1 MOL     -0.007369
     34 H14       -12.0320   -1.3010   -0.2960 hc        1 MOL      0.078137
     35 H15       -11.2100   -2.8870   -0.7530 hc        1 MOL      0.078137
     36 H16       -12.4430   -3.1580   -2.6650 hx        1 MOL      0.091281
     37 H17       -13.6670   -1.8830   -2.2880 hx        1 MOL      0.091281
     38 H18       -14.6150   -3.0710   -0.7900 hn        1 MOL      0.230034
     39 H19       -14.0890   -4.3150   -1.6600 hn        1 MOL      0.230034
     40 H20       -13.3280   -3.8910   -0.2490 hn        1 MOL      0.230034
     41 N4         -6.8370    0.6740   -0.6780 n         1 MOL     -0.081732
     42 C13        -5.3690    0.9100   -0.5550 c3        1 MOL     -0.047931
     43 C14        -4.9220    1.0800    0.9000 c         1 MOL      0.379280
     44 O6         -5.7260    1.5290    1.7010 o         1 MOL     -0.590555
     45 C15        -4.9380    2.1620   -1.4210 c3        1 MOL     -0.222388
     46 C16        -5.7420    3.4640   -1.4400 c         1 MOL      0.421608
     47 O7         -6.6370    3.5420   -0.5620 o         1 MOL     -0.532525
     48 O8         -5.5830    4.2830   -2.3540 o         1 MOL     -0.532525
     49 H21        -7.3760    1.5210   -0.7950 hn        1 MOL      0.111740
     50 H22        -4.8250    0.1160   -1.0620 h1        1 MOL      0.018407
     51 H23        -4.8410    1.7950   -2.4420 hc        1 MOL      0.101911
     52 H24        -3.9300    2.4370   -1.1230 hc        1 MOL      0.101911
     53 N5         -3.6870    0.7200    1.2340 n         1 MOL     -0.301179
     54 C17        -2.7200   -0.0750    0.4490 c3        1 MOL     -0.244380
     55 C18        -3.3240   -1.4950    0.1460 c         1 MOL      0.966799
     56 O9         -3.7630   -2.1360    1.0550 o         1 MOL     -0.589445
     57 H25        -3.4860    0.9050    2.2100 hn        1 MOL      0.260568
     58 H26        -1.8210   -0.2440    1.0440 h1        1 MOL      0.101713
     59 H27        -2.4210    0.4410   -0.4570 h1        1 MOL      0.101713
     60 N6         -3.1900   -1.9700   -1.1130 n         1 MOL     -0.666684
     61 C19        -3.7840   -3.1680   -1.6830 c3        1 MOL      0.289020
     62 C20        -2.8270   -4.2990   -1.5820 c         1 MOL      0.394215
     63 O10        -1.8150   -4.4290   -2.3560 o         1 MOL     -0.500591
     64 C21        -4.3520   -2.8560   -3.0760 c3        1 MOL     -0.214612
     65 C22        -5.0330   -4.0040   -3.7430 c         1 MOL      0.735204
     66 O11        -5.4190   -3.8140   -4.9250 o         1 MOL     -0.661063
     67 O12        -5.3750   -5.0390   -3.1400 o         1 MOL     -0.661063
     68 H28        -2.8360   -1.2830   -1.7610 hn        1 MOL      0.308883
     69 H29        -4.6390   -3.5040   -1.1010 h1        1 MOL     -0.021487
     70 H30        -3.5250   -2.5310   -3.7120 hc        1 MOL      0.049138
     71 H31        -5.1200   -2.0890   -2.9780 hc        1 MOL      0.049138
     72 N7         -3.0790   -5.2210   -0.6200 n         1 MOL     -0.319024
     73 C23        -2.2600   -6.4200   -0.3530 c3        1 MOL     -0.246869
     74 C24        -1.0010   -6.2000    0.4820 c         1 MOL      0.503593
     75 O13        -0.4140   -7.1430    0.9530 o         1 MOL     -0.567500
     76 H32        -3.9010   -5.0160   -0.0740 hn        1 MOL      0.277720
     77 H33        -1.8600   -6.8280   -1.2780 h1        1 MOL      0.157653
     78 H34        -2.8800   -7.1870    0.1140 h1        1 MOL      0.157653
     79 N8         -0.5350   -4.9730    0.5790 n         1 MOL     -0.015309
     80 C25         0.6090   -4.4190    1.2600 c3        1 MOL     -0.478565
     81 C26         0.9850   -3.1240    0.5300 c         1 MOL      0.821525
     82 O14         0.1140   -2.4990   -0.0770 o         1 MOL     -0.559167
     83 C27         0.1790   -4.0370    2.7010 c3        1 MOL      0.388627
     84 C28        -0.8890   -3.0450    2.9540 c3        1 MOL     -0.231004
     85 O15        -0.1610   -5.1910    3.3510 oh        1 MOL     -0.587627
     86 H35        -1.0430   -4.2700    0.0590 hn        1 MOL      0.067302
     87 H36         1.4400   -5.1320    1.1860 h1        1 MOL      0.157462
     88 H37         1.0510   -3.6820    3.2550 h1        1 MOL      0.000819
     89 H38        -0.0760   -5.8400    2.6610 ho        1 MOL      0.362474
     90 H39        -1.8400   -3.1280    2.4400 hc        1 MOL      0.062825
     91 H40        -0.9190   -2.8820    4.0280 hc        1 MOL      0.062825
     92 H41        -0.6440   -2.0480    2.5710 hc        1 MOL      0.062825
     93 N9          2.2240   -2.6920    0.6480 n         1 MOL     -0.599107
     94 C29         2.8290   -1.4990    0.0420 c3        1 MOL      0.003239
     95 C30         4.3220   -1.5270   -0.3750 c         1 MOL      0.477803
     96 O16         4.6900   -0.8010   -1.2840 o         1 MOL     -0.461627
     97 C31         2.6040   -0.2640    0.8660 c3        1 MOL     -0.088296
     98 C32         3.1510   -0.4470    2.3430 c3        1 MOL      0.071292
     99 C33         1.1500    0.1840    0.9020 c3        1 MOL      0.051972
    100 C34         2.9840    0.7280    3.2690 c3        1 MOL     -0.258674
    101 H42         2.8350   -3.2230    1.2550 hn        1 MOL      0.293164
    102 H43         2.3740   -1.3060   -0.9330 h1        1 MOL      0.128821
    103 H44         3.1280    0.5440    0.3530 hc        1 MOL      0.069650
    104 H45         4.1730   -0.7850    2.4710 hc        1 MOL      0.008551
    105 H46         2.6350   -1.3040    2.7720 hc        1 MOL      0.008551
    106 H47         1.1280    1.1840    1.3270 hc        1 MOL     -0.003179
    107 H48         0.7260    0.3470   -0.0920 hc        1 MOL     -0.003179
    108 H49         0.4640   -0.3630    1.5440 hc        1 MOL     -0.003179
    109 H50         3.5840    1.5990    2.9920 hc        1 MOL      0.063339
    110 H51         1.9060    0.9050    3.3610 hc        1 MOL      0.063339
    111 H52         3.1750    0.4600    4.3050 hc        1 MOL      0.063339
    112 N10         5.1710   -2.3410    0.2790 n         1 MOL     -0.324663
    113 C35         6.5510   -2.6360   -0.1340 c3        1 MOL     -0.228800
    114 C36         7.5170   -2.7050    1.0420 c         1 MOL      0.641610
    115 O17         7.1500   -3.1270    2.1540 o         1 MOL     -0.517824
    116 C37         6.6700   -3.9700   -0.8700 c3        1 MOL      0.394422
    117 C38         5.8050   -4.2460   -2.0800 c3        1 MOL     -0.336283
    118 O18         8.0030   -4.2910   -1.2330 oh        1 MOL     -0.611534
    119 H53         4.7840   -2.9090    1.0280 hn        1 MOL      0.227462
    120 H54         6.8640   -1.8160   -0.7810 h1        1 MOL      0.140998
    121 H55         6.3640   -4.7380   -0.1650 h1        1 MOL      0.044733
    122 H56         8.3240   -3.6000   -1.8290 ho        1 MOL      0.371207
    123 H57         6.0680   -5.2240   -2.4670 hc        1 MOL      0.093927
    124 H58         4.7460   -4.2170   -1.8260 hc        1 MOL      0.093927
    125 H59         5.9270   -3.4960   -2.8570 hc        1 MOL      0.093927
    126 N11         8.7690   -2.2290    0.7320 n         1 MOL     -0.535643
    127 C39         9.9600   -2.0910    1.5980 c3        1 MOL      0.042023
    128 C40        10.4030   -0.6670    1.6660 c         1 MOL      0.676711
    129 O19        10.7070   -0.1120    2.7750 o         1 MOL     -0.589345
    130 C41        11.1350   -3.0270    1.0740 c3        1 MOL      0.272832
    131 C42        12.2500   -3.1120    2.1030 c3        1 MOL     -0.323572
    132 O20        11.7240   -2.5900   -0.0860 oh        1 MOL     -0.632452
    133 H60         8.9590   -2.1800   -0.2630 hn        1 MOL      0.271828
    134 H61         9.7700   -2.3300    2.6420 h1        1 MOL      0.084767
    135 H62        10.6780   -3.9890    0.8340 h1        1 MOL      0.025390
    136 H63        11.9800   -3.3840   -0.5510 ho        1 MOL      0.416955
    137 H64        11.8530   -3.4960    3.0450 hc        1 MOL      0.084225
    138 H65        12.9620   -3.9040    1.8600 hc        1 MOL      0.084225
    139 H66        12.7190   -2.1440    2.2310 hc        1 MOL      0.084225
    140 N12        10.3510    0.0550    0.5340 n         1 MOL     -0.533276
    141 C43        10.4440    1.5240    0.4310 c3        1 MOL     -0.000115
    142 C44         9.2080    1.9800   -0.3350 c         1 MOL      0.620041
    143 O21         8.7040    1.2610   -1.2210 o         1 MOL     -0.506607
    144 C45        11.7190    1.9790   -0.2250 c3        1 MOL      0.011656
    145 C46        13.0320    1.5260    0.4950 c3        1 MOL      0.001020
    146 C47        14.2680    2.2790   -0.1030 c3        1 MOL     -0.178961
    147 C48        14.3120    2.2980   -1.6500 c3        1 MOL      0.156776
    148 N13        15.5810    2.8920   -2.1500 n4        1 MOL     -0.310299
    149 H67        10.1030   -0.4650   -0.2950 hn        1 MOL      0.270889
    150 H68        10.4210    1.9840    1.4130 h1        1 MOL      0.081329
    151 H69        11.5130    3.0460   -0.1730 hc        1 MOL      0.011605
    152 H70        11.7210    1.8070   -1.2950 hc        1 MOL      0.011605
    153 H71        13.1430    0.4690    0.2760 hc        1 MOL      0.064124
    154 H72        12.9360    1.5900    1.5760 hc        1 MOL      0.064124
    155 H73        15.1590    1.7850    0.2930 hc        1 MOL      0.055691
    156 H74        14.1210    3.2770    0.3130 hc        1 MOL      0.055691
    157 H75        13.4430    2.8360   -2.0150 hx        1 MOL      0.051868
    158 H76        14.2510    1.2530   -1.9540 hx        1 MOL      0.051868
    159 H77        15.5230    2.9870   -3.1560 hn        1 MOL      0.260776
    160 H78        15.6990    3.8060   -1.7410 hn        1 MOL      0.260776
    161 H79        16.3620    2.3130   -1.8830 hn        1 MOL      0.260776
    162 N14         8.8370    3.2710   -0.1000 n         1 MOL     -0.592087
    163 C49         7.8220    3.8720   -0.9580 c3        1 MOL      0.300003
    164 C50         6.3700    3.3640   -0.6970 c         1 MOL      0.264179
    165 O22         5.7750    2.7140   -1.6100 o         1 MOL     -0.510678
    166 C51         7.8720    5.3690   -1.0980 c3        1 MOL     -0.012224
    167 C52         6.8740    6.0740   -2.0520 c3        1 MOL     -0.194140
    168 C53         7.0410    7.6250   -2.1220 c         1 MOL      0.749216
    169 O23         7.6420    8.2050   -1.2140 o         1 MOL     -0.664885
    170 O24         6.4280    8.2160   -2.9970 o         1 MOL     -0.664885
    171 H80         9.2660    3.7800    0.6650 hn        1 MOL      0.311132
    172 H81         8.0730    3.5870   -1.9770 h1        1 MOL      0.031644
    173 H82         8.8740    5.6030   -1.4660 hc        1 MOL     -0.018705
    174 H83         7.9750    5.8760   -0.1360 hc        1 MOL     -0.018705
    175 H84         5.8360    5.8920   -1.7490 hc        1 MOL      0.047009
    176 H85         7.0630    5.8050   -3.0850 hc        1 MOL      0.047009
    177 N15         5.8160    3.6040    0.4560 n         1 MOL     -0.248239
    178 C54         6.3620    4.3190    1.6910 c3        1 MOL     -0.100511
    179 H86         7.4500    4.3610    1.6350 h1        1 MOL      0.073057
    180 H87         5.9620    5.3320    1.7310 h1        1 MOL      0.073057
    181 H88         6.0650    3.7750    2.5880 h1        1 MOL      0.073057
    182 H89         4.9040    3.2070    0.6590 hn        1 MOL      0.273128
    183 Ca1        -7.1650    3.8780    2.0890 Ca        1 MOL      1.594157
    184 O25        -7.9320    1.8750    3.8830 oh        1 MOL     -0.754819
    185 H90        -8.1800    2.1730    4.7500 ho        1 MOL      0.386012
    186 H91        -8.7360    1.5520    3.4950 ho        1 MOL      0.386012
@<TRIPOS>BOND
     1    1    2 1   
     2    1    4 1   
     3    1    5 1   
     4    1    6 1   
     5    2    3 2   
     6    2    7 1   
     7    7    8 1   
     8    7   15 1   
     9    8    9 1   
    10    8   11 1   
    11    8   16 1   
    12    9   10 2   
    13    9   19 1   
    14   11   12 1   
    15   11   17 1   
    16   11   18 1   
    17   12   13 1   
    18   12   14 1   
    19   19   20 1   
    20   19   28 1   
    21   20   21 1   
    22   20   23 1   
    23   20   29 1   
    24   21   22 2   
    25   21   41 1   
    26   23   24 1   
    27   23   30 1   
    28   23   31 1   
    29   24   25 1   
    30   24   32 1   
    31   24   33 1   
    32   25   26 1   
    33   25   34 1   
    34   25   35 1   
    35   26   27 1   
    36   26   36 1   
    37   26   37 1   
    38   27   38 1   
    39   27   39 1   
    40   27   40 1   
    41   41   42 1   
    42   41   49 1   
    43   42   43 1   
    44   42   45 1   
    45   42   50 1   
    46   43   44 2   
    47   43   53 1   
    48   45   46 1   
    49   45   51 1   
    50   45   52 1   
    51   46   47 1   
    52   46   48 1   
    53   53   54 1   
    54   53   57 1   
    55   54   55 1   
    56   54   58 1   
    57   54   59 1   
    58   55   56 2   
    59   55   60 1   
    60   60   61 1   
    61   60   68 1   
    62   61   62 1   
    63   61   64 1   
    64   61   69 1   
    65   62   63 2   
    66   62   72 1   
    67   64   65 1   
    68   64   70 1   
    69   64   71 1   
    70   65   66 1   
    71   65   67 1   
    72   72   73 1   
    73   72   76 1   
    74   73   74 1   
    75   73   77 1   
    76   73   78 1   
    77   74   75 2   
    78   74   79 1   
    79   79   80 1   
    80   79   86 1   
    81   80   81 1   
    82   80   83 1   
    83   80   87 1   
    84   81   82 2   
    85   81   93 1   
    86   83   84 1   
    87   83   85 1   
    88   83   88 1   
    89   84   90 1   
    90   84   91 1   
    91   84   92 1   
    92   85   89 1   
    93   93   94 1   
    94   93  101 1   
    95   94   95 1   
    96   94   97 1   
    97   94  102 1   
    98   95   96 2   
    99   95  112 1   
   100   97   98 1   
   101   97   99 1   
   102   97  103 1   
   103   98  100 1   
   104   98  104 1   
   105   98  105 1   
   106   99  106 1   
   107   99  107 1   
   108   99  108 1   
   109  100  109 1   
   110  100  110 1   
   111  100  111 1   
   112  112  113 1   
   113  112  119 1   
   114  113  114 1   
   115  113  116 1   
   116  113  120 1   
   117  114  115 2   
   118  114  126 1   
   119  116  117 1   
   120  116  118 1   
   121  116  121 1   
   122  117  123 1   
   123  117  124 1   
   124  117  125 1   
   125  118  122 1   
   126  126  127 1   
   127  126  133 1   
   128  127  128 1   
   129  127  130 1   
   130  127  134 1   
   131  128  129 2   
   132  128  140 1   
   133  130  131 1   
   134  130  132 1   
   135  130  135 1   
   136  131  137 1   
   137  131  138 1   
   138  131  139 1   
   139  132  136 1   
   140  140  141 1   
   141  140  149 1   
   142  141  142 1   
   143  141  144 1   
   144  141  150 1   
   145  142  143 2   
   146  142  162 1   
   147  144  145 1   
   148  144  151 1   
   149  144  152 1   
   150  145  146 1   
   151  145  153 1   
   152  145  154 1   
   153  146  147 1   
   154  146  155 1   
   155  146  156 1   
   156  147  148 1   
   157  147  157 1   
   158  147  158 1   
   159  148  159 1   
   160  148  160 1   
   161  148  161 1   
   162  162  163 1   
   163  162  171 1   
   164  163  164 1   
   165  163  166 1   
   166  163  172 1   
   167  164  165 2   
   168  164  177 1   
   169  166  167 1   
   170  166  173 1   
   171  166  174 1   
   172  167  168 1   
   173  167  175 1   
   174  167  176 1   
   175  168  169 1   
   176  168  170 1   
   177  177  178 1   
   178  177  182 1   
   179  178  179 1   
   180  178  180 1   
   181  178  181 1   
   182  184  185 1   
   183  184  186 1   
@<TRIPOS>SUBSTRUCTURE
     1 MOL         1 TEMP              0 ****  ****    0 ROOT
