@<TRIPOS>MOLECULE
MOL
  181   177     1     0     0
SMALL
resp


@<TRIPOS>ATOM
      1 C1         -1.5180    6.7870    1.2730 c3        1 MOL     -0.381305
      2 C2         -2.9150    6.7830    0.7040 c         1 MOL      0.605466
      3 O1         -3.0810    7.2110   -0.4440 o         1 MOL     -0.563277
      4 H1         -0.9860    5.8970    0.9340 hc        1 MOL      0.097966
      5 H2         -0.9900    7.6770    0.9320 hc        1 MOL      0.097966
      6 H3         -1.5680    6.7870    2.3620 hc        1 MOL      0.097966
      7 N1         -3.9330    6.2880    1.4860 n         1 MOL     -0.431856
      8 C3         -5.3210    6.2450    1.0580 c3        1 MOL      0.018768
      9 C4         -5.5530    4.9440    0.2090 c         1 MOL      0.444110
     10 O2         -5.9530    3.8870    0.6700 o         1 MOL     -0.483661
     11 C5         -6.1810    6.0940    2.3420 c3        1 MOL     -0.036416
     12 C6         -7.5910    6.5820    2.1510 c         1 MOL      0.645666
     13 O3         -8.3720    6.0640    1.2550 o         1 MOL     -0.724688
     14 O4         -7.9170    7.5800    2.8110 o         1 MOL     -0.724688
     15 H4         -3.6910    5.7960    2.3290 hn        1 MOL      0.283111
     16 H5         -5.5330    7.1530    0.4890 h1        1 MOL      0.106455
     17 H6         -5.6530    6.6990    3.0780 hc        1 MOL     -0.016834
     18 H7         -6.3170    5.1030    2.7790 hc        1 MOL     -0.016834
     19 N2         -5.1070    4.9450   -1.0960 n         1 MOL     -0.542034
     20 C7         -5.0490    3.7070   -2.0050 c3        1 MOL      0.525453
     21 C8         -3.6500    2.9020   -2.1710 c         1 MOL      0.362554
     22 O5         -2.6630    3.4420   -1.7130 o         1 MOL     -0.512265
     23 C9         -5.4690    4.2280   -3.4180 c3        1 MOL     -0.357245
     24 H8         -4.8110    5.8290   -1.4790 hn        1 MOL      0.280621
     25 H9         -5.7780    2.9600   -1.6890 h1        1 MOL     -0.039091
     26 H10        -5.2320    3.4840   -4.1810 hc        1 MOL      0.076334
     27 H11        -6.5610    4.3000   -3.4190 hc        1 MOL      0.076334
     28 H12        -5.0230    5.1650   -3.7510 hc        1 MOL      0.076334
     29 N3         -3.6660    1.6680   -2.7040 n         1 MOL     -0.216170
     30 C10        -4.7210    0.7990   -3.1170 c3        1 MOL     -0.182761
     31 C11        -5.4660    0.0220   -1.9890 c         1 MOL      0.551762
     32 O6         -4.7950   -0.5440   -1.0680 o         1 MOL     -0.527156
     33 C12        -4.2800   -0.1720   -4.2210 c3        1 MOL     -0.171904
     34 C13        -3.0540   -1.0880   -3.8070 c         1 MOL      0.710848
     35 O7         -3.0760   -2.2020   -4.4090 o         1 MOL     -0.689824
     36 O8         -2.0360   -0.6950   -3.1880 o         1 MOL     -0.689824
     37 H13        -2.7860    1.1660   -2.6170 hn        1 MOL      0.188960
     38 H14        -5.4640    1.4410   -3.5790 h1        1 MOL      0.044295
     39 H15        -4.0990    0.5090   -5.0460 hc        1 MOL      0.060060
     40 H16        -5.0340   -0.9360   -4.4100 hc        1 MOL      0.060060
     41 N4         -6.7500   -0.1280   -2.2080 n         1 MOL     -0.290550
     42 C14        -7.4990   -1.0950   -1.4640 c3        1 MOL     -0.151042
     43 C15        -7.7460   -0.7540   -0.0180 c         1 MOL      0.575460
     44 O9         -8.4600    0.1920    0.2510 o         1 MOL     -0.526745
     45 H17        -7.2690    0.3640   -2.9160 hn        1 MOL      0.293815
     46 H18        -7.0480   -2.0830   -1.5480 h1        1 MOL      0.087171
     47 H19        -8.4650   -1.2800   -1.9290 h1        1 MOL      0.087171
     48 N5         -7.3250   -1.5070    0.9980 n         1 MOL     -0.468868
     49 C16        -6.6330   -2.7640    1.0880 c3        1 MOL     -0.064556
     50 C17        -5.6430   -2.6120    2.2600 c         1 MOL      0.578277
     51 O10        -5.9490   -1.9910    3.2950 o         1 MOL     -0.511057
     52 C18        -7.6110   -3.9540    1.4130 c3        1 MOL     -0.085541
     53 C19        -8.7210   -4.2860    0.4100 c         1 MOL      0.628364
     54 N6         -9.7010   -3.4690    0.0850 n         1 MOL     -0.781886
     55 O11        -8.6130   -5.4040   -0.1170 o         1 MOL     -0.571894
     56 H20        -7.5930   -1.1090    1.8870 hn        1 MOL      0.305748
     57 H21        -6.0430   -2.9380    0.1930 h1        1 MOL      0.080527
     58 H22        -8.1760   -3.6200    2.2790 hc        1 MOL      0.044070
     59 H23        -7.1510   -4.8910    1.7330 hc        1 MOL      0.044070
     60 H24        -9.6230   -2.4960    0.3480 hn        1 MOL      0.372620
     61 H25       -10.4480   -3.8900   -0.4500 hn        1 MOL      0.372620
     62 N7         -4.4800   -3.2730    2.2360 n         1 MOL     -0.309511
     63 C20        -3.5330   -3.2910    3.3630 c3        1 MOL     -0.335804
     64 C21        -2.2340   -4.1690    3.2100 c         1 MOL      0.620879
     65 O12        -1.4170   -4.1520    4.1340 o         1 MOL     -0.538023
     66 H26        -4.2450   -3.7850    1.3980 hn        1 MOL      0.169289
     67 H27        -4.0040   -3.5600    4.3130 h1        1 MOL      0.164949
     68 H28        -3.2000   -2.2600    3.4790 h1        1 MOL      0.164949
     69 N8         -2.0800   -4.8410    2.0730 n         1 MOL     -0.391806
     70 C22        -0.8290   -5.4490    1.5740 c3        1 MOL     -0.324162
     71 C23         0.1150   -4.3280    0.9970 c         1 MOL      0.900104
     72 O13        -0.2930   -3.3180    0.4080 o         1 MOL     -0.745207
     73 C24        -0.9850   -6.6460    0.6520 c3        1 MOL      0.319214
     74 C25        -1.9340   -7.6480    1.2730 c3        1 MOL     -0.302034
     75 O14        -1.6180   -6.1850   -0.5030 oh        1 MOL     -0.568877
     76 H29        -2.6800   -4.7700    1.2770 hn        1 MOL      0.385823
     77 H30        -0.2700   -5.8460    2.4300 h1        1 MOL      0.136290
     78 H31        -0.0380   -7.1160    0.3970 h1        1 MOL      0.033812
     79 H32        -1.0250   -6.5190   -1.1800 ho        1 MOL      0.384914
     80 H33        -2.8950   -7.1420    1.3660 hc        1 MOL      0.079047
     81 H34        -2.0530   -8.5110    0.6170 hc        1 MOL      0.079047
     82 H35        -1.6050   -8.0490    2.2310 hc        1 MOL      0.079047
     83 N9          1.3720   -4.4590    1.2420 n         1 MOL     -0.619330
     84 C26         2.3980   -3.4200    1.1110 c3        1 MOL      0.405446
     85 C27         3.1410   -3.5460   -0.1630 c         1 MOL      0.408298
     86 O15         3.5330   -4.7150   -0.4270 o         1 MOL     -0.620996
     87 C28         3.4140   -3.2750    2.3710 c3        1 MOL      0.185986
     88 C29         4.3470   -2.1230    2.2080 c3        1 MOL      0.100463
     89 C30         2.6750   -3.2600    3.7140 c3        1 MOL     -0.271270
     90 C31         5.3720   -1.9450    3.3410 c3        1 MOL     -0.154248
     91 H36         1.7700   -5.1630    1.8460 hn        1 MOL      0.254496
     92 H37         1.9330   -2.4360    1.0400 h1        1 MOL     -0.129865
     93 H38         3.9630   -4.2200    2.3500 hc        1 MOL     -0.044466
     94 H39         3.7380   -1.2190    2.1730 hc        1 MOL     -0.037170
     95 H40         5.0080   -2.2770    1.3640 hc        1 MOL     -0.037170
     96 H41         2.1030   -4.1840    3.7650 hc        1 MOL      0.062271
     97 H42         3.4750   -3.2720    4.4540 hc        1 MOL      0.062271
     98 H43         1.9830   -2.4250    3.7770 hc        1 MOL      0.062271
     99 H44         5.7090   -2.9690    3.5190 hc        1 MOL      0.020287
    100 H45         6.2590   -1.3700    3.0580 hc        1 MOL      0.020287
    101 H46         4.9380   -1.5020    4.2360 hc        1 MOL      0.020287
    102 N10         3.4880   -2.4630   -0.8530 n         1 MOL     -0.011715
    103 C32         4.3940   -2.4610   -2.0550 c3        1 MOL     -0.084053
    104 C33         5.7750   -1.8930   -1.8380 c         1 MOL      0.346694
    105 O16         6.7050   -2.3300   -2.5420 o         1 MOL     -0.524287
    106 C34         3.6670   -1.6700   -3.0800 c3        1 MOL     -0.029578
    107 C35         2.1560   -1.9010   -3.3180 c         1 MOL      0.785214
    108 O17         1.7380   -3.0240   -3.6210 o         1 MOL     -0.762579
    109 O18         1.3780   -1.0030   -2.9510 o         1 MOL     -0.762579
    110 H47         3.0930   -1.6070   -0.5140 hn        1 MOL     -0.025281
    111 H48         4.5970   -3.4680   -2.4070 h1        1 MOL      0.112763
    112 H49         4.0960   -1.7450   -4.0800 hc        1 MOL      0.004497
    113 H50         3.7390   -0.6140   -2.8090 hc        1 MOL      0.004497
    114 N11         5.9620   -0.9240   -0.9590 n         1 MOL     -0.063233
    115 C36         7.0930   -0.0090   -1.0630 c3        1 MOL      0.029449
    116 C37         6.7590    1.4380   -0.5830 c         1 MOL      0.204808
    117 O19         6.9220    1.6980    0.6300 o         1 MOL     -0.416480
    118 C38         8.1750   -0.7070   -0.2440 c3        1 MOL     -0.464580
    119 C39         9.5560   -0.0210   -0.2490 ca        1 MOL      0.214401
    120 C40        10.0520    0.4680   -1.4830 ca        1 MOL     -0.140722
    121 C41        10.3920   -0.0910    0.8340 ca        1 MOL     -0.140722
    122 C42        11.3860    0.9200   -1.4830 ca        1 MOL     -0.147410
    123 C43        11.6810    0.4010    0.9030 ca        1 MOL     -0.147410
    124 C44        12.2100    0.9360   -0.3010 ca        1 MOL     -0.124082
    125 H51         5.2100   -0.6930   -0.3270 hn        1 MOL      0.186722
    126 H52         7.4640    0.0740   -2.0760 h1        1 MOL      0.121317
    127 H53         8.2850   -1.7350   -0.5790 hc        1 MOL      0.154348
    128 H54         7.8770   -0.7710    0.8090 hc        1 MOL      0.154348
    129 H55         9.5050    0.5210   -2.4100 ha        1 MOL      0.108233
    130 H56         9.9550   -0.4750    1.7450 ha        1 MOL      0.108233
    131 H57        11.7230    1.4700   -2.3440 ha        1 MOL      0.113550
    132 H58        12.2300    0.1930    1.8110 ha        1 MOL      0.113550
    133 H59        13.2150    1.3150   -0.3700 ha        1 MOL      0.100654
    134 N12         6.1000    2.3160   -1.3820 n         1 MOL      0.003379
    135 C45         5.6700    3.6610   -1.0180 c3        1 MOL      0.046226
    136 C46         5.0350    3.9260    0.3490 c         1 MOL      0.267948
    137 O20         5.0610    4.9690    0.9520 o         1 MOL     -0.478217
    138 C47         4.8960    4.1930   -2.2080 c3        1 MOL     -0.189593
    139 C48         5.1390    3.1540   -3.3790 c3        1 MOL      0.195265
    140 C49         5.5090    1.8910   -2.6480 c3        1 MOL     -0.231622
    141 H60         6.6440    4.1630   -1.0080 h1        1 MOL      0.070929
    142 H61         3.8300    4.1140   -2.0090 hc        1 MOL      0.072998
    143 H62         5.2980    5.1420   -2.5810 hc        1 MOL      0.072998
    144 H63         4.3320    3.0780   -4.0980 hc        1 MOL     -0.022294
    145 H64         6.0110    3.4730   -3.9560 hc        1 MOL     -0.022294
    146 H65         4.5850    1.3410   -2.4580 h1        1 MOL      0.092606
    147 H66         6.1490    1.2460   -3.2510 h1        1 MOL      0.092606
    148 N13         4.2760    2.9520    0.9180 n         1 MOL      0.018815
    149 C50         3.6970    3.0020    2.3250 c3        1 MOL     -0.359955
    150 C51         4.8460    3.1080    3.3580 c         1 MOL      0.601054
    151 O21         4.8930    4.0430    4.1750 o         1 MOL     -0.534405
    152 C52         2.8310    1.7490    2.6080 c3        1 MOL     -0.009070
    153 C53         1.7080    1.5350    1.5850 c3        1 MOL      0.181577
    154 C54         2.1050    0.5180    0.5200 c         1 MOL      0.460964
    155 O22         1.2890   -0.3500    0.1920 o         1 MOL     -0.594131
    156 O23         3.1220    0.6400   -0.1870 o         1 MOL     -0.594131
    157 H67         4.0740    2.1730    0.2960 hn        1 MOL      0.155634
    158 H68         3.0850    3.8980    2.4350 h1        1 MOL      0.150961
    159 H69         2.3170    1.8260    3.5710 hc        1 MOL      0.017911
    160 H70         3.4810    0.8740    2.6870 hc        1 MOL      0.017911
    161 H71         1.3770    2.4620    1.1040 hc        1 MOL     -0.025444
    162 H72         0.8430    1.1830    2.1370 hc        1 MOL     -0.025444
    163 N14         5.8790    2.1650    3.3000 n         1 MOL     -0.348339
    164 C55         7.1090    2.3240    4.1340 c3        1 MOL     -0.095970
    165 H73         7.9690    2.4860    3.4840 h1        1 MOL      0.063022
    166 H74         6.9900    3.1800    4.7980 h1        1 MOL      0.063022
    167 H75         7.2660    1.4240    4.7270 h1        1 MOL      0.063022
    168 H76         5.9240    1.4510    2.5800 hn        1 MOL      0.263461
    169 Ca1        -0.5000   -1.1950   -1.2290 Ca        1 MOL      1.800888
    170 O24        -1.8480    0.0760    0.7360 oh        1 MOL     -0.845060
    171 H77        -2.8060    0.1020    0.7970 ho        1 MOL      0.413571
    172 H78        -1.5450    0.4730    1.5540 ho        1 MOL      0.413571
    173 O25        -0.3410   -3.6370   -2.2940 oh        1 MOL     -0.845060
    174 H79         0.5250   -3.7360   -2.6890 ho        1 MOL      0.413571
    175 H80        -0.9490   -3.9140   -2.9790 ho        1 MOL      0.413571
    176 O26        -2.8020   -2.4180   -0.8800 oh        1 MOL     -0.845060
    177 H81        -3.5020   -1.8570   -0.5540 ho        1 MOL      0.413571
    178 H82        -3.1910   -3.2960   -0.9060 ho        1 MOL      0.413571
    179 O27        -0.4170    1.6620   -1.4930 oh        1 MOL     -0.845060
    180 H83         0.4580    1.8590   -1.8060 ho        1 MOL      0.413571
    181 H84        -0.8250    2.5160   -1.3720 ho        1 MOL      0.413571
@<TRIPOS>BOND
     1    1    2 1   
     2    1    4 1   
     3    1    5 1   
     4    1    6 1   
     5    2    3 2   
     6    2    7 1   
     7    7    8 1   
     8    7   15 1   
     9    8    9 1   
    10    8   11 1   
    11    8   16 1   
    12    9   10 2   
    13    9   19 1   
    14   11   12 1   
    15   11   17 1   
    16   11   18 1   
    17   12   13 1   
    18   12   14 1   
    19   19   20 1   
    20   19   24 1   
    21   20   21 1   
    22   20   23 1   
    23   20   25 1   
    24   21   22 2   
    25   21   29 1   
    26   23   26 1   
    27   23   27 1   
    28   23   28 1   
    29   29   30 1   
    30   29   37 1   
    31   30   31 1   
    32   30   33 1   
    33   30   38 1   
    34   31   32 2   
    35   31   41 1   
    36   33   34 1   
    37   33   39 1   
    38   33   40 1   
    39   34   35 1   
    40   34   36 1   
    41   41   42 1   
    42   41   45 1   
    43   42   43 1   
    44   42   46 1   
    45   42   47 1   
    46   43   44 2   
    47   43   48 1   
    48   48   49 1   
    49   48   56 1   
    50   49   50 1   
    51   49   52 1   
    52   49   57 1   
    53   50   51 2   
    54   50   62 1   
    55   52   53 1   
    56   52   58 1   
    57   52   59 1   
    58   53   54 1   
    59   53   55 2   
    60   54   60 1   
    61   54   61 1   
    62   62   63 1   
    63   62   66 1   
    64   63   64 1   
    65   63   67 1   
    66   63   68 1   
    67   64   65 2   
    68   64   69 1   
    69   69   70 1   
    70   69   76 1   
    71   70   71 1   
    72   70   73 1   
    73   70   77 1   
    74   71   72 2   
    75   71   83 1   
    76   73   74 1   
    77   73   75 1   
    78   73   78 1   
    79   74   80 1   
    80   74   81 1   
    81   74   82 1   
    82   75   79 1   
    83   83   84 1   
    84   83   91 1   
    85   84   85 1   
    86   84   87 1   
    87   84   92 1   
    88   85   86 2   
    89   85  102 1   
    90   87   88 1   
    91   87   89 1   
    92   87   93 1   
    93   88   90 1   
    94   88   94 1   
    95   88   95 1   
    96   89   96 1   
    97   89   97 1   
    98   89   98 1   
    99   90   99 1   
   100   90  100 1   
   101   90  101 1   
   102  102  103 1   
   103  102  110 1   
   104  103  104 1   
   105  103  106 1   
   106  103  111 1   
   107  104  105 2   
   108  104  114 1   
   109  106  107 1   
   110  106  112 1   
   111  106  113 1   
   112  107  108 1   
   113  107  109 1   
   114  114  115 1   
   115  114  125 1   
   116  115  116 1   
   117  115  118 1   
   118  115  126 1   
   119  116  117 2   
   120  116  134 1   
   121  118  119 1   
   122  118  127 1   
   123  118  128 1   
   124  119  120 ar  
   125  119  121 ar  
   126  120  122 ar  
   127  120  129 1   
   128  121  123 ar  
   129  121  130 1   
   130  122  124 ar  
   131  122  131 1   
   132  123  124 ar  
   133  123  132 1   
   134  124  133 1   
   135  134  135 1   
   136  134  140 1   
   137  135  136 1   
   138  135  138 1   
   139  135  141 1   
   140  136  137 2   
   141  136  148 1   
   142  138  139 1   
   143  138  142 1   
   144  138  143 1   
   145  139  140 1   
   146  139  144 1   
   147  139  145 1   
   148  140  146 1   
   149  140  147 1   
   150  148  149 1   
   151  148  157 1   
   152  149  150 1   
   153  149  152 1   
   154  149  158 1   
   155  150  151 2   
   156  150  163 1   
   157  152  153 1   
   158  152  159 1   
   159  152  160 1   
   160  153  154 1   
   161  153  161 1   
   162  153  162 1   
   163  154  155 1   
   164  154  156 1   
   165  163  164 1   
   166  163  168 1   
   167  164  165 1   
   168  164  166 1   
   169  164  167 1   
   170  170  171 1   
   171  170  172 1   
   172  173  174 1   
   173  173  175 1   
   174  176  177 1   
   175  176  178 1   
   176  179  180 1   
   177  179  181 1   
@<TRIPOS>SUBSTRUCTURE
     1 MOL         1 TEMP              0 ****  ****    0 ROOT
