@<TRIPOS>MOLECULE
MOL
  182   178     1     0     0
SMALL
resp


@<TRIPOS>ATOM
      1 C1         -0.5900   -3.7060    5.9850 c3        1 MOL     -0.360114
      2 C2         -0.3810   -3.4000    4.4640 c         1 MOL      0.699233
      3 O1         -1.2960   -3.3580    3.6340 o         1 MOL     -0.551622
      4 H1         -1.4760   -3.1810    6.3420 hc        1 MOL      0.108219
      5 H2         -0.7230   -4.7790    6.1240 hc        1 MOL      0.108219
      6 H3          0.2820   -3.3710    6.5470 hc        1 MOL      0.108219
      7 N1          0.9470   -3.3920    4.0680 n         1 MOL     -0.536145
      8 C3          1.4270   -3.2050    2.7070 c3        1 MOL      0.013962
      9 C4          1.3040   -4.4580    1.7770 c         1 MOL      0.655997
     10 O2          1.2850   -5.5640    2.3630 o         1 MOL     -0.548804
     11 C5          2.8560   -2.6430    2.7720 c3        1 MOL     -0.229742
     12 C6          3.3030   -1.7930    1.5590 c         1 MOL      0.513506
     13 O3          3.9030   -0.7100    1.7680 o         1 MOL     -0.650003
     14 O4          2.9830   -2.0300    0.3490 o         1 MOL     -0.650003
     15 H4          1.6780   -3.4240    4.7580 hn        1 MOL      0.304798
     16 H5          0.8390   -2.3410    2.3740 h1        1 MOL     -0.052663
     17 H6          3.4730   -3.5280    2.8680 hc        1 MOL      0.118862
     18 H7          3.1430   -2.0490    3.6380 hc        1 MOL      0.118862
     19 N2          1.3200   -4.3200    0.4270 n         1 MOL     -0.590972
     20 C7          1.5300   -5.4780   -0.4890 c3        1 MOL      0.053534
     21 C8          2.7140   -5.4650   -1.4970 c         1 MOL      0.454513
     22 O5          2.8350   -6.4370   -2.2440 o         1 MOL     -0.514601
     23 C9          0.1550   -5.7840   -1.1250 c3        1 MOL     -0.084892
     24 C10        -0.1490   -5.0230   -2.5600 c3        1 MOL     -0.001002
     25 C11        -1.5690   -5.0750   -3.0610 c3        1 MOL     -0.143484
     26 C12        -2.5840   -4.5450   -2.0500 c3        1 MOL      0.266854
     27 N3         -3.8990   -4.3650   -2.6080 n4        1 MOL     -0.625357
     28 H8          1.5060   -3.3820    0.1180 hn        1 MOL      0.525189
     29 H9          1.7550   -6.2560    0.2440 h1        1 MOL      0.104362
     30 H10        -0.6590   -5.4840   -0.4590 hc        1 MOL      0.052784
     31 H11         0.1220   -6.8430   -1.3650 hc        1 MOL      0.052784
     32 H12         0.5040   -5.4540   -3.3180 hc        1 MOL      0.024946
     33 H13         0.0320   -3.9720   -2.3480 hc        1 MOL      0.024946
     34 H14        -1.8780   -6.0960   -3.3190 hc        1 MOL      0.062117
     35 H15        -1.6510   -4.4380   -3.9330 hc        1 MOL      0.062117
     36 H16        -2.2800   -3.5830   -1.6450 hx        1 MOL      0.017829
     37 H17        -2.6050   -5.2330   -1.2040 hx        1 MOL      0.017829
     38 H18        -3.7460   -3.5760   -3.2320 hn        1 MOL      0.365853
     39 H19        -4.3580   -5.1920   -2.9780 hn        1 MOL      0.365853
     40 H20        -4.5740   -4.0790   -1.9190 hn        1 MOL      0.365853
     41 N4          3.4810   -4.3410   -1.5220 n         1 MOL     -0.258343
     42 C13         4.7560   -4.3190   -2.2300 c3        1 MOL      0.175397
     43 C14         5.8000   -4.2450   -1.1280 c         1 MOL      0.472233
     44 O6          6.6530   -5.0540   -1.0170 o         1 MOL     -0.546652
     45 C15         4.8890   -3.0730   -3.1650 c3        1 MOL     -0.412833
     46 C16         4.3200   -1.7060   -2.5670 c         1 MOL      0.704414
     47 O7          3.2010   -1.2850   -2.8170 o         1 MOL     -0.683043
     48 O8          5.0690   -1.0010   -1.8630 o         1 MOL     -0.683043
     49 H21         3.3400   -3.5770   -0.8790 hn        1 MOL      0.018205
     50 H22         5.0270   -5.2030   -2.8000 h1        1 MOL      0.056561
     51 H23         4.3210   -3.1200   -4.0920 hc        1 MOL      0.127587
     52 H24         5.9650   -3.0080   -3.3650 hc        1 MOL      0.127587
     53 N5          5.7510   -3.2380   -0.2290 n         1 MOL     -0.028702
     54 C17         6.6310   -3.0710    0.9400 c3        1 MOL     -0.143514
     55 C18         7.2800   -1.6540    1.0100 c         1 MOL      0.558717
     56 O9          8.0060   -1.4120    1.9990 o         1 MOL     -0.563043
     57 H25         5.0840   -2.4900   -0.3610 hn        1 MOL     -0.009372
     58 H26         7.4380   -3.8090    0.8690 h1        1 MOL      0.093260
     59 H27         6.0300   -3.2190    1.8330 h1        1 MOL      0.093260
     60 N6          7.1290   -0.7570    0.0170 n         1 MOL     -0.148063
     61 C19         7.7440    0.5610    0.0680 c3        1 MOL      0.059690
     62 C20         6.6900    1.6250   -0.1790 c         1 MOL      0.494223
     63 O10         5.4730    1.4150   -0.3820 o         1 MOL     -0.478150
     64 C21         9.0370    0.7060   -0.8450 c3        1 MOL     -0.488328
     65 C22         9.0490   -0.0510   -2.2140 c         1 MOL      0.672981
     66 N7          7.9740   -0.0930   -2.8510 n         1 MOL     -0.751056
     67 O11        10.0330   -0.6460   -2.6000 o         1 MOL     -0.553597
     68 H28         6.5270   -0.9150   -0.7810 hn        1 MOL      0.093196
     69 H29         8.1550    0.7460    1.0610 h1        1 MOL      0.090218
     70 H30         9.8390    0.2540   -0.2550 hc        1 MOL      0.151902
     71 H31         9.3040    1.7450   -1.0070 hc        1 MOL      0.151902
     72 H32         7.2300    0.5510   -2.6300 hn        1 MOL      0.364341
     73 H33         7.8980   -0.6770   -3.6710 hn        1 MOL      0.364341
     74 N8          7.1120    2.8980   -0.2020 n         1 MOL     -0.455849
     75 C23         6.2070    3.9650   -0.5590 c3        1 MOL     -0.003023
     76 C24         5.0900    4.3460    0.4650 c         1 MOL      0.550889
     77 O12         5.3390    4.3510    1.7010 o         1 MOL     -0.528749
     78 H34         8.0840    3.1600   -0.0980 hn        1 MOL      0.343335
     79 H35         5.6360    3.6990   -1.4480 h1        1 MOL      0.028866
     80 H36         6.8190    4.8430   -0.7640 h1        1 MOL      0.028866
     81 N9          3.9270    4.6270    0.0260 n         1 MOL     -0.374655
     82 C25         2.7160    4.6820    0.8600 c3        1 MOL     -0.015291
     83 C26         2.3210    3.3280    1.4580 c         1 MOL      0.491484
     84 O13         2.8380    2.2570    1.1010 o         1 MOL     -0.464249
     85 C27         1.5330    5.3590    0.1720 c3        1 MOL      0.082469
     86 C28         1.8410    6.6270   -0.5470 ca        1 MOL      0.131599
     87 C29         1.4520    6.8830   -1.8750 ca        1 MOL     -0.268835
     88 C30         2.5630    7.6100    0.1700 ca        1 MOL     -0.268835
     89 C31         1.7220    8.1170   -2.4770 ca        1 MOL     -0.133727
     90 C32         2.7740    8.8750   -0.3640 ca        1 MOL     -0.133727
     91 C33         2.3340    9.1060   -1.7270 ca        1 MOL      0.208068
     92 O14         2.5530   10.3510   -2.2740 oh        1 MOL     -0.423734
     93 H37         3.9020    4.7810   -0.9780 hn        1 MOL      0.204028
     94 H38         2.9270    5.3550    1.6970 h1        1 MOL      0.114688
     95 H39         0.7340    5.5250    0.9020 hc        1 MOL     -0.021613
     96 H40         1.0360    4.7070   -0.5490 hc        1 MOL     -0.021613
     97 H41         0.9490    6.1000   -2.4180 ha        1 MOL      0.141305
     98 H42         2.7680    7.4380    1.2160 ha        1 MOL      0.141305
     99 H43         1.3690    8.3340   -3.4700 ha        1 MOL      0.147339
    100 H44         3.2570    9.6600    0.1930 ha        1 MOL      0.147339
    101 H45         2.4640   10.3060   -3.2260 ho        1 MOL      0.334572
    102 N10         1.2970    3.3730    2.3560 n         1 MOL     -0.522533
    103 C34         0.5510    2.1850    2.8500 c3        1 MOL      0.044379
    104 C35        -0.0760    1.1950    1.7520 c         1 MOL      0.286168
    105 O15         0.6820    0.5420    1.0290 o         1 MOL     -0.338340
    106 C36         1.2560    1.4930    4.0110 c3        1 MOL      0.243536
    107 C37         0.5760    0.1100    4.3850 c3        1 MOL     -0.027645
    108 C38         1.6910    2.3370    5.1870 c3        1 MOL     -0.172736
    109 C39        -0.7770    0.2800    5.0440 c3        1 MOL     -0.212827
    110 H46         0.9520    4.2720    2.6500 hn        1 MOL      0.308081
    111 H47        -0.3240    2.5900    3.3740 h1        1 MOL      0.070682
    112 H48         2.2390    1.2200    3.6250 hc        1 MOL      0.028720
    113 H49         1.3370   -0.3990    4.9750 hc        1 MOL      0.023200
    114 H50         0.5120   -0.6430    3.5940 hc        1 MOL      0.023200
    115 H51         1.5930    3.4040    4.9640 hc        1 MOL      0.042384
    116 H52         0.9950    2.2810    6.0290 hc        1 MOL      0.042384
    117 H53         2.6380    2.0760    5.6470 hc        1 MOL      0.042384
    118 H54        -0.8580    1.2480    5.5310 hc        1 MOL      0.041630
    119 H55        -1.4980    0.2930    4.2190 hc        1 MOL      0.041630
    120 H56        -0.9910   -0.5770    5.6850 hc        1 MOL      0.041630
    121 N11        -1.4140    1.1950    1.7330 n         1 MOL     -0.283103
    122 C40        -2.1200    0.3490    0.8070 c3        1 MOL      0.003637
    123 C41        -3.6060    0.8110    0.5370 c         1 MOL      0.499260
    124 O16        -4.2640    1.4540    1.3560 o         1 MOL     -0.503602
    125 C42        -2.1260   -1.0750    1.3760 c3        1 MOL      0.063234
    126 O17        -1.4500   -1.9530    0.4960 oh        1 MOL     -0.764693
    127 H57        -1.9950    1.8570    2.2330 hn        1 MOL      0.238346
    128 H58        -1.6000    0.3700   -0.1490 h1        1 MOL      0.109518
    129 H59        -3.1420   -1.4550    1.5530 h1        1 MOL      0.093500
    130 H60        -1.5450   -1.1110    2.2970 h1        1 MOL      0.093500
    131 H61        -1.9150   -2.7760    0.6320 ho        1 MOL      0.447326
    132 N12        -4.1120    0.4370   -0.5960 n         1 MOL     -0.533477
    133 C43        -5.5300    0.3340   -0.8830 c3        1 MOL      0.286626
    134 C44        -5.7710   -1.0800   -1.4600 c         1 MOL      0.515838
    135 O18        -4.8820   -1.7790   -2.0200 o         1 MOL     -0.583188
    136 C45        -5.8150    1.4990   -1.9020 c3        1 MOL     -0.218266
    137 H62        -3.4710    0.0640   -1.2860 hn        1 MOL      0.274103
    138 H63        -6.0040    0.4140    0.0960 h1        1 MOL      0.092806
    139 H64        -5.4630    1.1250   -2.8700 hc        1 MOL      0.068942
    140 H65        -6.8930    1.6560   -1.9640 hc        1 MOL      0.068942
    141 H66        -5.3240    2.4260   -1.6030 hc        1 MOL      0.068942
    142 N13        -6.9690   -1.6490   -1.3680 n         1 MOL     -0.585090
    143 C46        -8.2750   -1.1070   -0.9160 c3        1 MOL      0.367688
    144 C47        -9.1120   -0.2960   -1.9390 c         1 MOL      0.542423
    145 O19        -8.8350   -0.3700   -3.0850 o         1 MOL     -0.561556
    146 C48        -9.1520   -2.2990   -0.4830 c3        1 MOL     -0.383278
    147 H67        -7.1240   -2.5580   -1.7750 hn        1 MOL      0.320853
    148 H68        -8.0800   -0.4100   -0.0920 h1        1 MOL     -0.031477
    149 H69        -8.7350   -2.7470    0.4220 hc        1 MOL      0.112256
    150 H70       -10.2220   -2.0980   -0.4100 hc        1 MOL      0.112256
    151 H71        -9.0440   -3.0900   -1.2190 hc        1 MOL      0.112256
    152 N14       -10.0830    0.5220   -1.5110 n         1 MOL     -0.555546
    153 C49       -10.5950    0.7890   -0.1220 c3        1 MOL     -0.046194
    154 C50        -9.8770    1.9600    0.5300 c         1 MOL      0.400151
    155 O20        -9.7140    2.0140    1.7620 o         1 MOL     -0.491400
    156 C51       -12.0740    1.0750   -0.1310 c3        1 MOL      0.115611
    157 C52       -12.8450   -0.1810   -0.4250 c3        1 MOL     -0.167834
    158 C53       -14.3840   -0.0500   -0.1710 c         1 MOL      0.676665
    159 O21       -14.8510    1.0720    0.0470 o         1 MOL     -0.685853
    160 O22       -15.0850   -1.0850   -0.2670 o         1 MOL     -0.685853
    161 H72       -10.5070    1.0240   -2.2900 hn        1 MOL      0.348823
    162 H73       -10.4020   -0.0630    0.5310 h1        1 MOL      0.097107
    163 H74       -12.3740    1.7580   -0.9230 hc        1 MOL      0.021479
    164 H75       -12.3460    1.5150    0.8270 hc        1 MOL      0.021479
    165 H76       -12.3530   -1.0390    0.0350 hc        1 MOL      0.017237
    166 H77       -12.6930   -0.4490   -1.4770 hc        1 MOL      0.017237
    167 N15        -9.5090    3.0500   -0.1830 n         1 MOL     -0.348823
    168 C54        -8.5880    4.1490    0.3120 c3        1 MOL     -0.100088
    169 H78        -8.3780    3.9960    1.3700 h1        1 MOL      0.087170
    170 H79        -7.6550    4.1230   -0.2510 h1        1 MOL      0.087170
    171 H80        -9.0690    5.1170    0.1750 h1        1 MOL      0.087170
    172 H81        -9.5970    3.0160   -1.1930 hn        1 MOL      0.237376
    173 Ca1         2.9840    0.3580   -0.7930 Ca        1 MOL      1.748984
    174 O23         0.8160    1.7030   -1.9360 oh        1 MOL     -0.854267
    175 H82         1.0570    2.1590   -2.7440 ho        1 MOL      0.416320
    176 H83        -0.0440    2.0620   -1.7040 ho        1 MOL      0.416320
    177 O24         0.5350   -1.4300   -1.2460 oh        1 MOL     -0.854267
    178 H84         0.0190   -1.8960   -1.9150 ho        1 MOL      0.416320
    179 H85        -0.0180   -1.4530   -0.4680 ho        1 MOL      0.416320
    180 O25         3.8830    2.0280   -2.4240 oh        1 MOL     -0.854267
    181 H86         3.3520    2.5450   -3.0260 ho        1 MOL      0.416320
    182 H87         4.7640    2.3930   -2.5050 ho        1 MOL      0.416320
@<TRIPOS>BOND
     1    1    2 1   
     2    1    4 1   
     3    1    5 1   
     4    1    6 1   
     5    2    3 2   
     6    2    7 1   
     7    7    8 1   
     8    7   15 1   
     9    8    9 1   
    10    8   11 1   
    11    8   16 1   
    12    9   10 2   
    13    9   19 1   
    14   11   12 1   
    15   11   17 1   
    16   11   18 1   
    17   12   13 1   
    18   12   14 1   
    19   19   20 1   
    20   19   28 1   
    21   20   21 1   
    22   20   23 1   
    23   20   29 1   
    24   21   22 2   
    25   21   41 1   
    26   23   24 1   
    27   23   30 1   
    28   23   31 1   
    29   24   25 1   
    30   24   32 1   
    31   24   33 1   
    32   25   26 1   
    33   25   34 1   
    34   25   35 1   
    35   26   27 1   
    36   26   36 1   
    37   26   37 1   
    38   27   38 1   
    39   27   39 1   
    40   27   40 1   
    41   41   42 1   
    42   41   49 1   
    43   42   43 1   
    44   42   45 1   
    45   42   50 1   
    46   43   44 2   
    47   43   53 1   
    48   45   46 1   
    49   45   51 1   
    50   45   52 1   
    51   46   47 1   
    52   46   48 1   
    53   53   54 1   
    54   53   57 1   
    55   54   55 1   
    56   54   58 1   
    57   54   59 1   
    58   55   56 2   
    59   55   60 1   
    60   60   61 1   
    61   60   68 1   
    62   61   62 1   
    63   61   64 1   
    64   61   69 1   
    65   62   63 2   
    66   62   74 1   
    67   64   65 1   
    68   64   70 1   
    69   64   71 1   
    70   65   66 1   
    71   65   67 2   
    72   66   72 1   
    73   66   73 1   
    74   74   75 1   
    75   74   78 1   
    76   75   76 1   
    77   75   79 1   
    78   75   80 1   
    79   76   77 2   
    80   76   81 1   
    81   81   82 1   
    82   81   93 1   
    83   82   83 1   
    84   82   85 1   
    85   82   94 1   
    86   83   84 2   
    87   83  102 1   
    88   85   86 1   
    89   85   95 1   
    90   85   96 1   
    91   86   87 ar  
    92   86   88 ar  
    93   87   89 ar  
    94   87   97 1   
    95   88   90 ar  
    96   88   98 1   
    97   89   91 ar  
    98   89   99 1   
    99   90   91 ar  
   100   90  100 1   
   101   91   92 1   
   102   92  101 1   
   103  102  103 1   
   104  102  110 1   
   105  103  104 1   
   106  103  106 1   
   107  103  111 1   
   108  104  105 2   
   109  104  121 1   
   110  106  107 1   
   111  106  108 1   
   112  106  112 1   
   113  107  109 1   
   114  107  113 1   
   115  107  114 1   
   116  108  115 1   
   117  108  116 1   
   118  108  117 1   
   119  109  118 1   
   120  109  119 1   
   121  109  120 1   
   122  121  122 1   
   123  121  127 1   
   124  122  123 1   
   125  122  125 1   
   126  122  128 1   
   127  123  124 2   
   128  123  132 1   
   129  125  126 1   
   130  125  129 1   
   131  125  130 1   
   132  126  131 1   
   133  132  133 1   
   134  132  137 1   
   135  133  134 1   
   136  133  136 1   
   137  133  138 1   
   138  134  135 2   
   139  134  142 1   
   140  136  139 1   
   141  136  140 1   
   142  136  141 1   
   143  142  143 1   
   144  142  147 1   
   145  143  144 1   
   146  143  146 1   
   147  143  148 1   
   148  144  145 2   
   149  144  152 1   
   150  146  149 1   
   151  146  150 1   
   152  146  151 1   
   153  152  153 1   
   154  152  161 1   
   155  153  154 1   
   156  153  156 1   
   157  153  162 1   
   158  154  155 2   
   159  154  167 1   
   160  156  157 1   
   161  156  163 1   
   162  156  164 1   
   163  157  158 1   
   164  157  165 1   
   165  157  166 1   
   166  158  159 1   
   167  158  160 1   
   168  167  168 1   
   169  167  172 1   
   170  168  169 1   
   171  168  170 1   
   172  168  171 1   
   173  174  175 1   
   174  174  176 1   
   175  177  178 1   
   176  177  179 1   
   177  180  181 1   
   178  180  182 1   
@<TRIPOS>SUBSTRUCTURE
     1 MOL         1 TEMP              0 ****  ****    0 ROOT
