@<TRIPOS>MOLECULE
MOL
  188   182     1     0     0
SMALL
resp


@<TRIPOS>ATOM
      1 C1          6.4490   -2.2440   -3.1630 c3        1 MOL     -0.310253
      2 C2          7.2320   -2.1000   -1.8220 c         1 MOL      0.740640
      3 O1          6.6030   -1.7590   -0.8480 o         1 MOL     -0.574406
      4 H1          6.7340   -3.1760   -3.6510 hc        1 MOL      0.067443
      5 H2          5.3780   -2.2530   -2.9600 hc        1 MOL      0.067443
      6 H3          6.6890   -1.4040   -3.8160 hc        1 MOL      0.067443
      7 N1          8.5370   -2.2200   -1.8860 n         1 MOL     -0.727331
      8 C3          9.4230   -2.0810   -0.7590 c3        1 MOL      0.439974
      9 C4          9.3390   -0.7430   -0.0060 c         1 MOL      0.287844
     10 O2          9.6760   -0.5090    1.1280 o         1 MOL     -0.457279
     11 C5          9.3920   -3.3840    0.1220 c3        1 MOL     -0.163120
     12 C6         10.6490   -3.5890    0.8700 c         1 MOL      0.651682
     13 O3         10.6950   -4.5100    1.7690 o         1 MOL     -0.666623
     14 O4         11.6260   -2.9240    0.5200 o         1 MOL     -0.666623
     15 H4          8.9700   -2.5760   -2.7250 hn        1 MOL      0.349875
     16 H5         10.4420   -2.1310   -1.1450 h1        1 MOL     -0.022546
     17 H6          9.2320   -4.2140   -0.5650 hc        1 MOL      0.037154
     18 H7          8.5590   -3.4250    0.8220 hc        1 MOL      0.037154
     19 N2          8.6670    0.1810   -0.6670 n         1 MOL     -0.267465
     20 C7          8.4240    1.5820   -0.2430 c3        1 MOL     -0.022416
     21 C8          6.9950    2.0590   -0.2970 c         1 MOL      0.629473
     22 O5          6.6840    3.2370   -0.2690 o         1 MOL     -0.650028
     23 C9          9.4320    2.4420   -0.9780 c3        1 MOL     -0.081634
     24 C10        10.9560    2.2170   -0.5150 c3        1 MOL     -0.121136
     25 C11        11.8780    2.9530   -1.4840 c3        1 MOL      0.054626
     26 C12        11.9660    4.4180   -1.2510 c3        1 MOL     -0.069056
     27 N3         12.8040    5.0850   -2.2980 n4        1 MOL     -0.096879
     28 H8          8.4160   -0.0200   -1.6190 hn        1 MOL      0.156712
     29 H9          8.6770    1.5540    0.8240 h1        1 MOL      0.115886
     30 H10         9.1830    3.4920   -0.8930 hc        1 MOL      0.038310
     31 H11         9.2660    2.3710   -2.0610 hc        1 MOL      0.038310
     32 H12        11.3030    1.1830   -0.5510 hc        1 MOL      0.089263
     33 H13        11.0090    2.7530    0.4400 hc        1 MOL      0.089263
     34 H14        11.5640    2.6330   -2.4730 hc        1 MOL      0.015289
     35 H15        12.8690    2.5270   -1.3120 hc        1 MOL      0.015289
     36 H16        12.4050    4.4260   -0.2510 hx        1 MOL      0.091187
     37 H17        10.9490    4.8060   -1.2110 hx        1 MOL      0.091187
     38 H18        12.9250    6.0790   -2.2170 hn        1 MOL      0.197933
     39 H19        13.7550    4.8010   -2.1030 hn        1 MOL      0.197933
     40 H20        12.6490    4.8390   -3.2660 hn        1 MOL      0.197933
     41 N4          6.0720    1.1530   -0.4330 n         1 MOL     -0.492172
     42 C13         4.6670    1.5310   -0.4530 c3        1 MOL      0.164384
     43 C14         4.4100    2.0450    0.9730 c         1 MOL      0.483437
     44 O6          4.5710    1.2550    1.9330 o         1 MOL     -0.475514
     45 C15         3.8510    0.3950   -0.8390 c3        1 MOL     -0.311483
     46 C16         2.3460    0.7880   -0.8370 c         1 MOL      0.789833
     47 O7          1.7490    1.1410   -1.8430 o         1 MOL     -0.782419
     48 O8          1.7910    0.8160    0.2590 o         1 MOL     -0.782419
     49 H21         6.3680    0.2050   -0.6160 hn        1 MOL      0.321344
     50 H22         4.5450    2.3560   -1.1580 h1        1 MOL      0.028712
     51 H23         4.0050   -0.4350   -0.1440 hc        1 MOL      0.101795
     52 H24         4.1340    0.0460   -1.8300 hc        1 MOL      0.101795
     53 N5          3.9390    3.3090    1.1080 n         1 MOL     -0.123968
     54 C17         3.7830    3.9010    2.4610 c3        1 MOL     -0.328709
     55 C18         2.7160    3.2460    3.3770 c         1 MOL      0.583515
     56 O9          2.6470    3.7250    4.5180 o         1 MOL     -0.560328
     57 H25         3.9430    3.9120    0.3000 hn        1 MOL      0.222535
     58 H26         3.6060    4.9780    2.3780 h1        1 MOL      0.148055
     59 H27         4.7400    3.6420    2.9120 h1        1 MOL      0.148055
     60 N6          1.8830    2.3100    2.9270 n         1 MOL     -0.097617
     61 C19         1.1420    1.4380    3.8290 c3        1 MOL      0.103747
     62 C20         1.3720   -0.1110    3.5590 c         1 MOL      0.360428
     63 O10         0.5080   -0.9150    4.0170 o         1 MOL     -0.534544
     64 C21        -0.2470    2.0410    3.9170 c3        1 MOL     -0.233859
     65 C22        -1.2320    1.6030    2.8650 c         1 MOL      0.741332
     66 N7         -2.5140    1.6480    3.0210 n         1 MOL     -0.836943
     67 O11        -0.7860    1.0750    1.8260 o         1 MOL     -0.625242
     68 H28         2.0690    1.9270    2.0120 hn        1 MOL     -0.244600
     69 H29         1.5400    1.6110    4.8260 h1        1 MOL      0.086295
     70 H30        -0.2090    3.1160    3.7860 hc        1 MOL      0.081073
     71 H31        -0.5920    1.7680    4.9100 hc        1 MOL      0.081073
     72 H32        -2.9500    1.9960    3.8640 hn        1 MOL      0.386399
     73 H33        -3.0010    1.1400    2.2980 hn        1 MOL      0.386399
     74 N8          2.4680   -0.6200    3.0120 n         1 MOL     -0.082616
     75 C23         2.8690   -1.9900    2.9430 c3        1 MOL     -0.270123
     76 C24         2.3130   -2.7700    1.7040 c         1 MOL      0.582338
     77 O12         2.5480   -3.9320    1.4810 o         1 MOL     -0.535533
     78 H34         3.1800    0.0930    2.8790 hn        1 MOL      0.202567
     79 H35         2.5250   -2.5750    3.8000 h1        1 MOL      0.142427
     80 H36         3.9550   -2.0510    2.9460 h1        1 MOL      0.142427
     81 N9          1.5100   -2.0810    0.8330 n         1 MOL     -0.377073
     82 C25         0.7180   -2.7140   -0.2250 c3        1 MOL     -0.023905
     83 C26        -0.5970   -2.0080   -0.3420 c         1 MOL      0.187037
     84 O13        -0.7520   -0.7640   -0.5020 o         1 MOL     -0.498173
     85 C27         1.5180   -2.8460   -1.5530 c3        1 MOL     -0.267515
     86 C28         0.6710   -3.3550   -2.6980 ca        1 MOL      0.130053
     87 C29         0.4830   -4.7580   -2.8770 ca        1 MOL     -0.218004
     88 C30         0.0020   -2.4160   -3.5390 ca        1 MOL     -0.218004
     89 C31        -0.3250   -5.1870   -3.9620 ca        1 MOL     -0.233194
     90 C32        -0.7850   -2.9170   -4.5800 ca        1 MOL     -0.233194
     91 C33        -0.9540   -4.3070   -4.8490 ca        1 MOL      0.311947
     92 O14        -1.7670   -4.7360   -5.8560 oh        1 MOL     -0.460915
     93 H37         1.2200   -1.1630    1.1410 hn        1 MOL      0.404416
     94 H38         0.4510   -3.6980    0.1770 h1        1 MOL      0.106651
     95 H39         2.3950   -3.4940   -1.4930 hc        1 MOL      0.147628
     96 H40         1.8820   -1.8520   -1.8150 hc        1 MOL      0.147628
     97 H41         0.9810   -5.4980   -2.2740 ha        1 MOL      0.172904
     98 H42         0.3020   -1.3910   -3.4060 ha        1 MOL      0.172904
     99 H43        -0.5230   -6.2340   -4.1050 ha        1 MOL      0.138058
    100 H44        -1.3090   -2.2120   -5.2090 ha        1 MOL      0.138058
    101 H45        -2.1270   -3.9560   -6.2910 ho        1 MOL      0.354308
    102 N10        -1.6900   -2.7140   -0.4410 n         1 MOL     -0.150897
    103 C34        -3.0700   -2.1990   -0.5230 c3        1 MOL     -0.056794
    104 C35        -3.4910   -1.5410    0.8190 c         1 MOL      0.444205
    105 O15        -4.1140   -0.4670    0.8540 o         1 MOL     -0.567001
    106 C36        -3.9660   -3.4360   -0.9480 c3        1 MOL      0.135668
    107 C37        -3.5900   -3.9620   -2.3480 c3        1 MOL      0.150975
    108 C38        -5.3460   -2.8350   -0.9920 c3        1 MOL     -0.299932
    109 C39        -4.4710   -5.0620   -2.9540 c3        1 MOL     -0.193994
    110 H46        -1.5830   -3.7140   -0.3770 hn        1 MOL      0.202435
    111 H47        -3.1280   -1.5070   -1.3710 h1        1 MOL      0.092044
    112 H48        -3.9340   -4.2630   -0.2510 hc        1 MOL     -0.033898
    113 H49        -2.5700   -4.3560   -2.2910 hc        1 MOL     -0.005881
    114 H50        -3.5880   -3.0840   -3.0030 hc        1 MOL     -0.005881
    115 H51        -6.0280   -3.6610   -1.1790 hc        1 MOL      0.067794
    116 H52        -5.7620   -2.3440   -0.1210 hc        1 MOL      0.067794
    117 H53        -5.3570   -2.1160   -1.8160 hc        1 MOL      0.067794
    118 H54        -5.5120   -4.7240   -3.0270 hc        1 MOL      0.051364
    119 H55        -4.2430   -5.1190   -4.0170 hc        1 MOL      0.051364
    120 H56        -4.4120   -6.0720   -2.5530 hc        1 MOL      0.051364
    121 N11        -3.1730   -2.1680    1.9540 n         1 MOL     -0.049874
    122 C40        -3.6740   -1.7110    3.3190 c3        1 MOL     -0.377046
    123 C41        -5.2080   -1.6640    3.4870 c         1 MOL      0.728883
    124 O16        -5.7530   -0.9570    4.3380 o         1 MOL     -0.524598
    125 C42        -3.0180   -2.5140    4.4390 c3        1 MOL      0.281670
    126 O17        -3.3990   -3.8930    4.4870 oh        1 MOL     -0.636744
    127 H57        -2.6630   -3.0350    1.8890 hn        1 MOL      0.199765
    128 H58        -3.3200   -0.6850    3.4480 h1        1 MOL      0.121537
    129 H59        -3.3370   -2.1050    5.3980 h1        1 MOL      0.026181
    130 H60        -1.9280   -2.4450    4.3970 h1        1 MOL      0.026181
    131 H61        -2.7730   -4.2590    5.1100 ho        1 MOL      0.419681
    132 N12        -5.8990   -2.5200    2.7080 n         1 MOL     -0.486679
    133 C43        -7.3490   -2.4830    2.5530 c3        1 MOL      0.363825
    134 C44        -7.8800   -1.0730    2.2130 c         1 MOL      0.392128
    135 O18        -9.0050   -0.7140    2.6000 o         1 MOL     -0.542138
    136 C45        -8.0020   -3.2910    3.6310 c3        1 MOL     -0.494934
    137 H62        -5.4100   -3.0000    1.9570 hn        1 MOL      0.238142
    138 H63        -7.5420   -2.9930    1.6100 h1        1 MOL      0.030405
    139 H64        -9.0640   -3.2070    3.4320 hc        1 MOL      0.133436
    140 H65        -7.7430   -4.3270    3.3990 hc        1 MOL      0.133436
    141 H66        -7.7860   -2.8800    4.6070 hc        1 MOL      0.133436
    142 N13        -7.0840   -0.3240    1.5620 n         1 MOL     -0.317441
    143 C46        -7.5320    1.0220    1.2060 c3        1 MOL      0.152020
    144 C47        -8.3040    1.1820   -0.1200 c         1 MOL      0.550926
    145 O19        -8.0000    0.4880   -1.0570 o         1 MOL     -0.513486
    146 C48        -6.2250    1.8340    1.0190 c3        1 MOL     -0.445085
    147 H67        -6.1110   -0.5510    1.3950 hn        1 MOL      0.181204
    148 H68        -8.0130    1.4880    2.0660 h1        1 MOL      0.068852
    149 H69        -6.5430    2.8690    1.0580 hc        1 MOL      0.141713
    150 H70        -5.6030    1.6090    1.8880 hc        1 MOL      0.141713
    151 H71        -5.8380    1.5200    0.0460 hc        1 MOL      0.141713
    152 N14        -9.2400    2.1390   -0.1890 n         1 MOL     -0.753856
    153 C49        -9.8960    2.6010   -1.3770 c3        1 MOL      0.193302
    154 C50       -10.6030    1.4990   -2.2610 c         1 MOL      0.321565
    155 O20       -11.1500    1.8400   -3.3030 o         1 MOL     -0.498595
    156 C51        -8.8840    3.3690   -2.2410 c3        1 MOL      0.299671
    157 C52        -8.1600    4.5640   -1.5310 c3        1 MOL     -0.413841
    158 C53        -7.4090    5.5410   -2.5290 c         1 MOL      0.779186
    159 O21        -7.0860    5.1800   -3.6990 o         1 MOL     -0.705701
    160 O22        -7.0740    6.6620   -2.0850 o         1 MOL     -0.705701
    161 H72        -9.2770    2.6880    0.6560 hn        1 MOL      0.356923
    162 H73       -10.6740    3.3290   -1.1570 h1        1 MOL      0.056634
    163 H74        -9.4880    3.7430   -3.0690 hc        1 MOL     -0.039258
    164 H75        -8.2170    2.5930   -2.6230 hc        1 MOL     -0.039258
    165 H76        -7.4590    4.1090   -0.8280 hc        1 MOL      0.057134
    166 H77        -8.9330    5.0970   -0.9770 hc        1 MOL      0.057134
    167 N15       -10.7710    0.2780   -1.7780 n         1 MOL     -0.226369
    168 C54       -11.3880   -0.8710   -2.4970 c3        1 MOL     -0.049283
    169 H78       -10.6330   -1.6380   -2.6710 h1        1 MOL      0.057999
    170 H79       -12.1960   -1.2870   -1.8950 h1        1 MOL      0.057999
    171 H80       -11.7860   -0.5310   -3.4540 h1        1 MOL      0.057999
    172 H81       -10.4610    0.0840   -0.8300 hn        1 MOL      0.237772
    173 Ca1        -0.5500    1.8730   -0.7820 Ca        1 MOL      1.790520
    174 O23        -2.6590    3.7100    0.3070 oh        1 MOL     -0.816166
    175 H82        -2.1940    4.1070    1.0490 ho        1 MOL      0.407957
    176 H83        -3.0210    4.4490   -0.1720 ho        1 MOL      0.407957
    177 O24        -0.4490    4.0060   -2.3120 oh        1 MOL     -0.816166
    178 H84        -1.1590    4.4470   -2.7820 ho        1 MOL      0.407957
    179 H85         0.2890    4.6110   -2.3750 ho        1 MOL      0.407957
    180 O25        -3.0960    1.0780   -1.1430 oh        1 MOL     -0.816166
    181 H86        -3.7520    1.3570   -1.7820 ho        1 MOL      0.407957
    182 H87        -3.5870    0.5440   -0.5210 ho        1 MOL      0.407957
    183 O26        -1.0080    1.1540   -3.4670 oh        1 MOL     -0.816166
    184 H88        -0.2460    1.0610   -4.0330 ho        1 MOL      0.407957
    185 H89        -1.7410    1.2890   -4.0550 ho        1 MOL      0.407957
    186 O27         1.0010    3.8650    0.0730 oh        1 MOL     -0.816166
    187 H90         1.6910    4.3060   -0.4210 ho        1 MOL      0.407957
    188 H91         0.6080    4.5590    0.6010 ho        1 MOL      0.407957
@<TRIPOS>BOND
     1    1    2 1   
     2    1    4 1   
     3    1    5 1   
     4    1    6 1   
     5    2    3 2   
     6    2    7 1   
     7    7    8 1   
     8    7   15 1   
     9    8    9 1   
    10    8   11 1   
    11    8   16 1   
    12    9   10 2   
    13    9   19 1   
    14   11   12 1   
    15   11   17 1   
    16   11   18 1   
    17   12   13 1   
    18   12   14 1   
    19   19   20 1   
    20   19   28 1   
    21   20   21 1   
    22   20   23 1   
    23   20   29 1   
    24   21   22 2   
    25   21   41 1   
    26   23   24 1   
    27   23   30 1   
    28   23   31 1   
    29   24   25 1   
    30   24   32 1   
    31   24   33 1   
    32   25   26 1   
    33   25   34 1   
    34   25   35 1   
    35   26   27 1   
    36   26   36 1   
    37   26   37 1   
    38   27   38 1   
    39   27   39 1   
    40   27   40 1   
    41   41   42 1   
    42   41   49 1   
    43   42   43 1   
    44   42   45 1   
    45   42   50 1   
    46   43   44 2   
    47   43   53 1   
    48   45   46 1   
    49   45   51 1   
    50   45   52 1   
    51   46   47 1   
    52   46   48 1   
    53   53   54 1   
    54   53   57 1   
    55   54   55 1   
    56   54   58 1   
    57   54   59 1   
    58   55   56 2   
    59   55   60 1   
    60   60   61 1   
    61   60   68 1   
    62   61   62 1   
    63   61   64 1   
    64   61   69 1   
    65   62   63 2   
    66   62   74 1   
    67   64   65 1   
    68   64   70 1   
    69   64   71 1   
    70   65   66 1   
    71   65   67 2   
    72   66   72 1   
    73   66   73 1   
    74   74   75 1   
    75   74   78 1   
    76   75   76 1   
    77   75   79 1   
    78   75   80 1   
    79   76   77 2   
    80   76   81 1   
    81   81   82 1   
    82   81   93 1   
    83   82   83 1   
    84   82   85 1   
    85   82   94 1   
    86   83   84 2   
    87   83  102 1   
    88   85   86 1   
    89   85   95 1   
    90   85   96 1   
    91   86   87 ar  
    92   86   88 ar  
    93   87   89 ar  
    94   87   97 1   
    95   88   90 ar  
    96   88   98 1   
    97   89   91 ar  
    98   89   99 1   
    99   90   91 ar  
   100   90  100 1   
   101   91   92 1   
   102   92  101 1   
   103  102  103 1   
   104  102  110 1   
   105  103  104 1   
   106  103  106 1   
   107  103  111 1   
   108  104  105 2   
   109  104  121 1   
   110  106  107 1   
   111  106  108 1   
   112  106  112 1   
   113  107  109 1   
   114  107  113 1   
   115  107  114 1   
   116  108  115 1   
   117  108  116 1   
   118  108  117 1   
   119  109  118 1   
   120  109  119 1   
   121  109  120 1   
   122  121  122 1   
   123  121  127 1   
   124  122  123 1   
   125  122  125 1   
   126  122  128 1   
   127  123  124 2   
   128  123  132 1   
   129  125  126 1   
   130  125  129 1   
   131  125  130 1   
   132  126  131 1   
   133  132  133 1   
   134  132  137 1   
   135  133  134 1   
   136  133  136 1   
   137  133  138 1   
   138  134  135 2   
   139  134  142 1   
   140  136  139 1   
   141  136  140 1   
   142  136  141 1   
   143  142  143 1   
   144  142  147 1   
   145  143  144 1   
   146  143  146 1   
   147  143  148 1   
   148  144  145 2   
   149  144  152 1   
   150  146  149 1   
   151  146  150 1   
   152  146  151 1   
   153  152  153 1   
   154  152  161 1   
   155  153  154 1   
   156  153  156 1   
   157  153  162 1   
   158  154  155 2   
   159  154  167 1   
   160  156  157 1   
   161  156  163 1   
   162  156  164 1   
   163  157  158 1   
   164  157  165 1   
   165  157  166 1   
   166  158  159 1   
   167  158  160 1   
   168  167  168 1   
   169  167  172 1   
   170  168  169 1   
   171  168  170 1   
   172  168  171 1   
   173  174  175 1   
   174  174  176 1   
   175  177  178 1   
   176  177  179 1   
   177  180  181 1   
   178  180  182 1   
   179  183  184 1   
   180  183  185 1   
   181  186  187 1   
   182  186  188 1   
@<TRIPOS>SUBSTRUCTURE
     1 MOL         1 TEMP              0 ****  ****    0 ROOT
