@<TRIPOS>MOLECULE
MOL
  186   183     1     0     0
SMALL
resp


@<TRIPOS>ATOM
      1 C1        -11.8770    5.9220    2.9020 c3        1 MOL     -0.467151
      2 C2        -11.7900    4.9080    1.7420 c         1 MOL      0.539293
      3 O1        -12.7590    4.1690    1.4590 o         1 MOL     -0.580661
      4 H1        -12.9220    6.0840    3.1650 hc        1 MOL      0.127948
      5 H2        -11.3410    5.5330    3.7670 hc        1 MOL      0.127948
      6 H3        -11.4300    6.8680    2.5940 hc        1 MOL      0.127948
      7 N1        -10.7070    4.9740    0.9600 n         1 MOL      0.169794
      8 C3        -10.4580    4.1040   -0.1960 c3        1 MOL     -0.900128
      9 C4         -9.5930    2.8870    0.1660 c         1 MOL      0.688323
     10 O2         -8.4590    3.0760    0.6830 o         1 MOL     -0.651177
     11 C5         -9.8600    4.8310   -1.3710 c3        1 MOL      0.452917
     12 C6         -8.9100    6.0110   -1.0110 c         1 MOL      0.475630
     13 O3         -8.3380    6.0710    0.1330 o         1 MOL     -0.644916
     14 O4         -8.5690    6.8620   -1.9140 o         1 MOL     -0.644916
     15 H4         -9.9280    5.5960    1.1440 hn        1 MOL     -0.022891
     16 H5        -11.4050    3.7080   -0.5440 h1        1 MOL      0.241626
     17 H6        -10.7130    5.2260   -1.9250 hc        1 MOL      0.009213
     18 H7         -9.4200    4.1800   -2.1310 hc        1 MOL      0.009213
     19 N2         -9.9150    1.6380   -0.0990 n         1 MOL     -0.464707
     20 C7         -9.1440    0.3330    0.0350 c3        1 MOL      0.344835
     21 C8         -7.7980    0.2070   -0.6110 c         1 MOL      0.302366
     22 O5         -7.5650   -0.6290   -1.5290 o         1 MOL     -0.453451
     23 C9        -10.0750   -0.8320   -0.4070 c3        1 MOL     -0.050800
     24 C10        -9.6150   -2.2580    0.0260 c3        1 MOL      0.067055
     25 C11       -10.4770   -3.3950   -0.5830 c3        1 MOL     -0.035173
     26 C12       -11.9830   -3.2140   -0.4120 c3        1 MOL      0.067840
     27 N3        -12.7440   -4.3170   -1.1580 n4        1 MOL     -0.284501
     28 H8        -10.6790    1.5370   -0.7490 hn        1 MOL      0.264797
     29 H9         -8.9720    0.0980    1.0870 h1        1 MOL     -0.031497
     30 H10       -10.1360   -0.6850   -1.4810 hc        1 MOL      0.018184
     31 H11       -11.0240   -0.6610    0.1030 hc        1 MOL      0.018184
     32 H12        -9.6280   -2.2470    1.1180 hc        1 MOL      0.002946
     33 H13        -8.6040   -2.5680   -0.2600 hc        1 MOL      0.002946
     34 H14       -10.1990   -4.3590   -0.1490 hc        1 MOL      0.060054
     35 H15       -10.2100   -3.4020   -1.6340 hc        1 MOL      0.060054
     36 H16       -12.3350   -2.2720   -0.8400 hx        1 MOL      0.042075
     37 H17       -12.1050   -3.3010    0.6630 hx        1 MOL      0.042075
     38 H18       -12.8350   -4.1260   -2.1430 hn        1 MOL      0.289357
     39 H19       -12.1990   -5.1550   -1.1360 hn        1 MOL      0.289357
     40 H20       -13.6560   -4.5320   -0.7730 hn        1 MOL      0.289357
     41 N4         -6.8610    1.0880   -0.2670 n         1 MOL     -0.300404
     42 C13        -5.5030    1.1530   -0.8160 c3        1 MOL     -0.214226
     43 C14        -4.5140    1.9570    0.1590 c         1 MOL      0.452141
     44 O6         -4.9440    2.8240    0.8940 o         1 MOL     -0.641662
     45 C15        -5.6250    1.8890   -2.1960 c3        1 MOL     -0.435023
     46 C16        -6.3930    3.2660   -2.1860 c         1 MOL      0.946175
     47 O7         -6.1780    4.1350   -1.3550 o         1 MOL     -0.737810
     48 O8         -7.1520    3.5200   -3.1740 o         1 MOL     -0.737810
     49 H21        -7.1490    1.7250    0.4570 hn        1 MOL      0.324563
     50 H22        -5.2220    0.1110   -0.9740 h1        1 MOL      0.271834
     51 H23        -6.1360    1.1350   -2.8010 hc        1 MOL      0.138922
     52 H24        -4.6700    2.1150   -2.6820 hc        1 MOL      0.138922
     53 N5         -3.1930    1.5740    0.1250 n         1 MOL     -0.301045
     54 C17        -2.6810    0.3580   -0.5950 c3        1 MOL     -0.254146
     55 C18        -3.2490   -1.0330   -0.2760 c         1 MOL      0.736168
     56 O9         -3.8150   -1.3110    0.7540 o         1 MOL     -0.544091
     57 H25        -2.5310    2.0610    0.7120 hn        1 MOL      0.281127
     58 H26        -1.6440    0.4670   -0.2650 h1        1 MOL      0.125640
     59 H27        -2.6580    0.5560   -1.6660 h1        1 MOL      0.125640
     60 N6         -2.9750   -1.9820   -1.1730 n         1 MOL     -0.701711
     61 C19        -3.6900   -3.2260   -1.2690 c3        1 MOL      0.244208
     62 C20        -2.8940   -4.4250   -1.6410 c         1 MOL      0.523294
     63 O10        -1.9750   -4.3390   -2.4260 o         1 MOL     -0.539578
     64 C21        -4.9230   -2.9630   -2.2530 c3        1 MOL     -0.211467
     65 C22        -5.8970   -4.1730   -2.4060 c         1 MOL      0.739125
     66 O11        -6.0400   -4.8820   -1.3870 o         1 MOL     -0.715081
     67 O12        -6.5170   -4.4560   -3.4340 o         1 MOL     -0.715081
     68 H28        -2.4590   -1.7800   -2.0090 hn        1 MOL      0.333839
     69 H29        -4.0840   -3.5630   -0.3060 h1        1 MOL     -0.017220
     70 H30        -4.4790   -2.7240   -3.2190 hc        1 MOL      0.038057
     71 H31        -5.4620   -2.1070   -1.8650 hc        1 MOL      0.038057
     72 N7         -3.2600   -5.5730   -1.0680 n         1 MOL     -0.309703
     73 C23        -2.6130   -6.8540   -1.3770 c3        1 MOL     -0.061028
     74 C24        -1.2940   -7.0140   -0.6180 c         1 MOL      0.444183
     75 O13        -0.3810   -7.7730   -0.9460 o         1 MOL     -0.555132
     76 H32        -4.0060   -5.5950   -0.3990 hn        1 MOL      0.252626
     77 H33        -2.4380   -7.1020   -2.4270 h1        1 MOL      0.095759
     78 H34        -3.2620   -7.6770   -1.1010 h1        1 MOL      0.095759
     79 N8         -1.0120   -6.2580    0.4680 n         1 MOL     -0.201615
     80 C25         0.2540   -5.9150    1.1950 c3        1 MOL     -0.062359
     81 C26         0.4580   -4.4590    1.2680 c         1 MOL      0.566991
     82 O14        -0.5130   -3.7160    1.2530 o         1 MOL     -0.492277
     83 C27         0.3060   -6.4930    2.6440 c3        1 MOL      0.104577
     84 C28        -0.6480   -5.9570    3.6990 c3        1 MOL     -0.240613
     85 O15         0.0800   -7.9000    2.6180 oh        1 MOL     -0.555659
     86 H35        -1.8300   -5.7450    0.7700 hn        1 MOL      0.166434
     87 H36         1.1330   -6.1870    0.6070 h1        1 MOL      0.103781
     88 H37         1.3100   -6.2750    3.0280 h1        1 MOL      0.044965
     89 H38         0.8530   -8.3300    2.2510 ho        1 MOL      0.388450
     90 H39        -1.6340   -6.4330    3.5970 hc        1 MOL      0.092622
     91 H40        -0.4210   -6.1950    4.7340 hc        1 MOL      0.092622
     92 H41        -0.7470   -4.8740    3.7690 hc        1 MOL      0.092622
     93 N9          1.6710   -3.9360    1.4140 n         1 MOL     -0.450032
     94 C29         1.8230   -2.4380    1.3060 c3        1 MOL      0.039858
     95 C30         2.9500   -2.1690    0.3320 c         1 MOL      0.459044
     96 O16         2.6670   -1.4730   -0.6900 o         1 MOL     -0.536239
     97 C31         2.1300   -1.6560    2.6290 c3        1 MOL      0.234411
     98 C32         1.0320   -1.7730    3.6450 c3        1 MOL      0.014949
     99 C33         2.2930   -0.1330    2.3790 c3        1 MOL     -0.486548
    100 C34         0.9870   -3.0440    4.4820 c3        1 MOL     -0.283892
    101 H42         2.4580   -4.5230    1.1910 hn        1 MOL      0.221335
    102 H43         0.9560   -1.9320    0.9010 h1        1 MOL      0.068750
    103 H44         3.1200   -1.9990    2.9220 hc        1 MOL     -0.043947
    104 H45         0.0650   -1.5230    3.1930 hc        1 MOL      0.035661
    105 H46         1.1580   -0.9780    4.3840 hc        1 MOL      0.035661
    106 H47         1.3300    0.2390    2.0530 hc        1 MOL      0.122162
    107 H48         2.5100    0.2680    3.3700 hc        1 MOL      0.122162
    108 H49         3.0700   -0.0070    1.6250 hc        1 MOL      0.122162
    109 H50         1.2480   -3.9230    3.8950 hc        1 MOL      0.058994
    110 H51         1.6630   -2.8950    5.3250 hc        1 MOL      0.058994
    111 H52        -0.0280   -3.2770    4.7900 hc        1 MOL      0.058994
    112 N10         4.1950   -2.5900    0.6050 n         1 MOL     -0.154080
    113 C35         5.4310   -2.3510   -0.2460 c3        1 MOL     -0.489243
    114 C36         6.7110   -2.6170    0.5700 c         1 MOL      0.750821
    115 O17         6.6340   -3.4590    1.4710 o         1 MOL     -0.534535
    116 C37         5.2850   -3.1230   -1.5350 c3        1 MOL      0.545490
    117 C38         4.9090   -4.5640   -1.3200 c3        1 MOL     -0.321298
    118 O18         4.3800   -2.4970   -2.4260 oh        1 MOL     -0.656725
    119 H53         4.3610   -3.1330    1.4390 hn        1 MOL      0.224833
    120 H54         5.4340   -1.3120   -0.5710 h1        1 MOL      0.163892
    121 H55         6.2780   -3.0570   -1.9690 h1        1 MOL     -0.026269
    122 H56         3.6680   -2.1670   -1.8740 ho        1 MOL      0.423734
    123 H57         5.4160   -5.0250   -0.4610 hc        1 MOL      0.075265
    124 H58         3.8210   -4.6130   -1.2610 hc        1 MOL      0.075265
    125 H59         5.2620   -5.1420   -2.1680 hc        1 MOL      0.075265
    126 N11         7.8680   -1.9140    0.3460 n         1 MOL     -0.650375
    127 C39         9.1360   -2.0960    1.1710 c3        1 MOL     -0.052135
    128 C40         9.8040   -0.7270    1.5110 c         1 MOL      0.730499
    129 O19        10.0910   -0.4500    2.6510 o         1 MOL     -0.571887
    130 C41        10.0610   -2.9340    0.3900 c3        1 MOL      0.247841
    131 C42        11.4690   -3.1380    0.8980 c3        1 MOL     -0.387324
    132 O20        10.2610   -2.5220   -0.9380 oh        1 MOL     -0.605014
    133 H60         7.8330   -1.3730   -0.4990 hn        1 MOL      0.349638
    134 H61         8.9320   -2.6340    2.0980 h1        1 MOL      0.132403
    135 H62         9.6770   -3.9430    0.1990 h1        1 MOL      0.052071
    136 H63         9.8970   -3.2500   -1.4560 ho        1 MOL      0.402531
    137 H64        12.0090   -2.2030    0.8200 hc        1 MOL      0.108533
    138 H65        11.3650   -3.3180    1.9730 hc        1 MOL      0.108533
    139 H66        11.9700   -3.9840    0.4390 hc        1 MOL      0.108533
    140 N12         9.9070    0.1740    0.5200 n         1 MOL     -0.462168
    141 C43        10.6300    1.4360    0.4810 c3        1 MOL      0.086748
    142 C44         9.8590    2.4800   -0.3220 c         1 MOL      0.500655
    143 O21         9.0940    2.0700   -1.2260 o         1 MOL     -0.478423
    144 C45        12.0430    1.2140   -0.0740 c3        1 MOL     -0.297455
    145 C46        12.2020    0.6710   -1.5110 c3        1 MOL      0.140815
    146 C47        13.4430    0.1610   -2.0760 c3        1 MOL     -0.047589
    147 C48        14.4740    1.2570   -2.4670 c3        1 MOL      0.052368
    148 N13        15.6690    0.6510   -3.1090 n4        1 MOL     -0.294261
    149 H67         9.5460   -0.2590   -0.3230 hn        1 MOL      0.230718
    150 H68        10.7230    1.8600    1.4860 h1        1 MOL      0.081742
    151 H69        12.4600    0.4610    0.5950 hc        1 MOL      0.080283
    152 H70        12.5520    2.1750   -0.0360 hc        1 MOL      0.080283
    153 H71        11.8250    1.3900   -2.2340 hc        1 MOL      0.016628
    154 H72        11.4860   -0.1380   -1.6490 hc        1 MOL      0.016628
    155 H73        13.1510   -0.3720   -2.9790 hc        1 MOL      0.036234
    156 H74        13.8560   -0.5620   -1.3780 hc        1 MOL      0.036234
    157 H75        14.7080    1.6940   -1.4970 hx        1 MOL      0.067909
    158 H76        14.0520    1.9970   -3.1330 hx        1 MOL      0.067909
    159 H77        16.1640    0.0300   -2.4780 hn        1 MOL      0.244075
    160 H78        15.4190    0.2350   -3.9980 hn        1 MOL      0.244075
    161 H79        16.3200    1.3920   -3.3250 hn        1 MOL      0.244075
    162 N14         9.9990    3.7520    0.0460 n         1 MOL     -0.437796
    163 C49         9.2270    4.8470   -0.5660 c3        1 MOL      0.088613
    164 C50         7.7370    4.5060   -0.8460 c         1 MOL      0.403996
    165 O22         7.3050    4.3800   -2.0010 o         1 MOL     -0.535373
    166 C51         9.4550    6.0950    0.3310 c3        1 MOL     -0.148979
    167 C52         8.9520    7.3850   -0.3520 c3        1 MOL     -0.161428
    168 C53         9.4290    8.5830    0.3650 c         1 MOL      0.736821
    169 O23         8.6490    9.1980    1.1410 o         1 MOL     -0.657455
    170 O24        10.5730    8.9300    0.3260 o         1 MOL     -0.657455
    171 H80        10.7160    4.0130    0.7020 hn        1 MOL      0.277625
    172 H81         9.7250    5.1010   -1.5010 h1        1 MOL      0.078219
    173 H82        10.5210    6.0660    0.5620 hc        1 MOL      0.076958
    174 H83         8.9180    6.1490    1.2910 hc        1 MOL      0.076958
    175 H84         7.8710    7.4490   -0.4690 hc        1 MOL      0.040784
    176 H85         9.4050    7.5020   -1.3270 hc        1 MOL      0.040784
    177 N15         6.8090    4.3430    0.0850 n         1 MOL     -0.347291
    178 C54         6.8850    4.3910    1.5830 c3        1 MOL      0.078525
    179 H86         7.8600    4.7740    1.8850 h1        1 MOL      0.023982
    180 H87         6.1040    5.0470    1.9660 h1        1 MOL      0.023982
    181 H88         6.7480    3.3880    1.9870 h1        1 MOL      0.023982
    182 H89         6.0350    3.8630   -0.3320 hn        1 MOL      0.289815
    183 Ca1        -6.3410    4.8980    1.1450 Ca        1 MOL      1.703015
    184 O25        -7.2860    3.0760    3.2310 oh        1 MOL     -0.843066
    185 H90        -6.7170    2.4760    3.7200 ho        1 MOL      0.422420
    186 H91        -8.1250    3.0300    3.6880 ho        1 MOL      0.422420
@<TRIPOS>BOND
     1    1    2 1   
     2    1    4 1   
     3    1    5 1   
     4    1    6 1   
     5    2    3 2   
     6    2    7 1   
     7    7    8 1   
     8    7   15 1   
     9    8    9 1   
    10    8   11 1   
    11    8   16 1   
    12    9   10 2   
    13    9   19 1   
    14   11   12 1   
    15   11   17 1   
    16   11   18 1   
    17   12   13 1   
    18   12   14 1   
    19   19   20 1   
    20   19   28 1   
    21   20   21 1   
    22   20   23 1   
    23   20   29 1   
    24   21   22 2   
    25   21   41 1   
    26   23   24 1   
    27   23   30 1   
    28   23   31 1   
    29   24   25 1   
    30   24   32 1   
    31   24   33 1   
    32   25   26 1   
    33   25   34 1   
    34   25   35 1   
    35   26   27 1   
    36   26   36 1   
    37   26   37 1   
    38   27   38 1   
    39   27   39 1   
    40   27   40 1   
    41   41   42 1   
    42   41   49 1   
    43   42   43 1   
    44   42   45 1   
    45   42   50 1   
    46   43   44 2   
    47   43   53 1   
    48   45   46 1   
    49   45   51 1   
    50   45   52 1   
    51   46   47 1   
    52   46   48 1   
    53   53   54 1   
    54   53   57 1   
    55   54   55 1   
    56   54   58 1   
    57   54   59 1   
    58   55   56 2   
    59   55   60 1   
    60   60   61 1   
    61   60   68 1   
    62   61   62 1   
    63   61   64 1   
    64   61   69 1   
    65   62   63 2   
    66   62   72 1   
    67   64   65 1   
    68   64   70 1   
    69   64   71 1   
    70   65   66 1   
    71   65   67 1   
    72   72   73 1   
    73   72   76 1   
    74   73   74 1   
    75   73   77 1   
    76   73   78 1   
    77   74   75 2   
    78   74   79 1   
    79   79   80 1   
    80   79   86 1   
    81   80   81 1   
    82   80   83 1   
    83   80   87 1   
    84   81   82 2   
    85   81   93 1   
    86   83   84 1   
    87   83   85 1   
    88   83   88 1   
    89   84   90 1   
    90   84   91 1   
    91   84   92 1   
    92   85   89 1   
    93   93   94 1   
    94   93  101 1   
    95   94   95 1   
    96   94   97 1   
    97   94  102 1   
    98   95   96 2   
    99   95  112 1   
   100   97   98 1   
   101   97   99 1   
   102   97  103 1   
   103   98  100 1   
   104   98  104 1   
   105   98  105 1   
   106   99  106 1   
   107   99  107 1   
   108   99  108 1   
   109  100  109 1   
   110  100  110 1   
   111  100  111 1   
   112  112  113 1   
   113  112  119 1   
   114  113  114 1   
   115  113  116 1   
   116  113  120 1   
   117  114  115 2   
   118  114  126 1   
   119  116  117 1   
   120  116  118 1   
   121  116  121 1   
   122  117  123 1   
   123  117  124 1   
   124  117  125 1   
   125  118  122 1   
   126  126  127 1   
   127  126  133 1   
   128  127  128 1   
   129  127  130 1   
   130  127  134 1   
   131  128  129 2   
   132  128  140 1   
   133  130  131 1   
   134  130  132 1   
   135  130  135 1   
   136  131  137 1   
   137  131  138 1   
   138  131  139 1   
   139  132  136 1   
   140  140  141 1   
   141  140  149 1   
   142  141  142 1   
   143  141  144 1   
   144  141  150 1   
   145  142  143 2   
   146  142  162 1   
   147  144  145 1   
   148  144  151 1   
   149  144  152 1   
   150  145  146 1   
   151  145  153 1   
   152  145  154 1   
   153  146  147 1   
   154  146  155 1   
   155  146  156 1   
   156  147  148 1   
   157  147  157 1   
   158  147  158 1   
   159  148  159 1   
   160  148  160 1   
   161  148  161 1   
   162  162  163 1   
   163  162  171 1   
   164  163  164 1   
   165  163  166 1   
   166  163  172 1   
   167  164  165 2   
   168  164  177 1   
   169  166  167 1   
   170  166  173 1   
   171  166  174 1   
   172  167  168 1   
   173  167  175 1   
   174  167  176 1   
   175  168  169 1   
   176  168  170 1   
   177  177  178 1   
   178  177  182 1   
   179  178  179 1   
   180  178  180 1   
   181  178  181 1   
   182  184  185 1   
   183  184  186 1   
@<TRIPOS>SUBSTRUCTURE
     1 MOL         1 TEMP              0 ****  ****    0 ROOT
