@<TRIPOS>MOLECULE
MOL
  191   184     1     0     0
SMALL
resp


@<TRIPOS>ATOM
      1 C1         -4.2570    0.4250   -2.6910 c3        1 MOL     -0.448231
      2 C2         -5.0930    0.9290   -1.4790 c         1 MOL      0.568267
      3 O1         -4.7020    0.8520   -0.3200 o         1 MOL     -0.470068
      4 H1         -4.8410   -0.2990   -3.2600 hc        1 MOL      0.125186
      5 H2         -4.0010    1.2680   -3.3330 hc        1 MOL      0.125186
      6 H3         -3.3440   -0.0500   -2.3320 hc        1 MOL      0.125186
      7 N1         -6.3660    1.2250   -1.7430 n         1 MOL     -0.580843
      8 C3         -7.4570    1.5730   -0.9370 c3        1 MOL      0.142311
      9 C4         -7.8410    0.5350    0.0900 c         1 MOL      0.491476
     10 O2         -8.3360    0.8070    1.1370 o         1 MOL     -0.490147
     11 C5         -7.2760    2.9920   -0.2890 c3        1 MOL     -0.307992
     12 C6         -6.7630    4.0930   -1.2390 c         1 MOL      0.763701
     13 O3         -6.7840    3.9990   -2.4580 o         1 MOL     -0.658690
     14 O4         -6.5020    5.2470   -0.7320 o         1 MOL     -0.658690
     15 H4         -6.4590    1.3680   -2.7350 hn        1 MOL      0.306181
     16 H5         -8.3260    1.5860   -1.5950 h1        1 MOL      0.058691
     17 H6         -6.5410    2.7320    0.4760 hc        1 MOL      0.094495
     18 H7         -8.2490    3.3430    0.0500 hc        1 MOL      0.094495
     19 N2         -7.5470   -0.7600   -0.1520 n         1 MOL     -0.386567
     20 C7         -7.7090   -1.9410    0.6810 c3        1 MOL     -0.118584
     21 C8         -6.4500   -2.7960    0.9440 c         1 MOL      0.603073
     22 O5         -6.4950   -3.9940    1.3330 o         1 MOL     -0.559786
     23 C9         -9.0390   -2.6820    0.3080 c3        1 MOL     -0.060595
     24 C10        -9.1610   -3.2620   -1.1000 c3        1 MOL     -0.016641
     25 C11       -10.5550   -3.6350   -1.6810 c3        1 MOL     -0.007254
     26 C12       -10.3960   -4.1730   -3.1310 c3        1 MOL      0.021841
     27 N3        -11.6540   -4.2770   -3.9170 n4        1 MOL     -0.227620
     28 H8         -7.0940   -0.9310   -1.0340 hn        1 MOL      0.216489
     29 H9         -7.9300   -1.3900    1.5970 h1        1 MOL      0.136476
     30 H10        -9.9480   -2.1180    0.4920 hc        1 MOL      0.056309
     31 H11        -9.2280   -3.3890    1.1150 hc        1 MOL      0.056309
     32 H12        -8.5800   -4.1760   -0.9990 hc        1 MOL      0.014813
     33 H13        -8.6950   -2.5660   -1.7860 hc        1 MOL      0.014813
     34 H14       -11.1600   -2.7440   -1.5850 hc        1 MOL      0.030087
     35 H15       -11.0410   -4.3630   -1.0440 hc        1 MOL      0.030087
     36 H16        -9.9330   -5.1610   -3.1090 hx        1 MOL      0.076001
     37 H17        -9.6630   -3.5350   -3.6180 hx        1 MOL      0.076001
     38 H18       -12.3260   -4.9000   -3.4880 hn        1 MOL      0.250334
     39 H19       -12.1470   -3.4060   -3.9260 hn        1 MOL      0.250334
     40 H20       -11.4420   -4.6400   -4.8350 hn        1 MOL      0.250334
     41 N4         -5.3120   -2.1090    0.7840 n         1 MOL     -0.328378
     42 C13        -4.0270   -2.7190    0.7960 c3        1 MOL     -0.360444
     43 C14        -3.3400   -2.6930    2.2380 c         1 MOL      0.717842
     44 O6         -3.5140   -1.7780    2.9570 o         1 MOL     -0.513970
     45 C15        -3.0840   -1.9900   -0.2280 c3        1 MOL      0.181006
     46 C16        -1.7200   -2.6670   -0.1900 c         1 MOL      0.436377
     47 O7         -1.5240   -3.5860   -1.0210 o         1 MOL     -0.634170
     48 O8         -0.8200   -2.3180    0.5900 o         1 MOL     -0.634170
     49 H21        -5.4000   -1.1380    0.5090 hn        1 MOL      0.288503
     50 H22        -4.1490   -3.7460    0.4700 h1        1 MOL      0.122796
     51 H23        -3.0010   -0.9330    0.0560 hc        1 MOL      0.017022
     52 H24        -3.4090   -2.1060   -1.2540 hc        1 MOL      0.017022
     53 N5         -2.5430   -3.7340    2.5710 n         1 MOL     -0.363110
     54 C17        -1.9950   -3.8000    3.9250 c3        1 MOL     -0.325078
     55 C18        -0.9840   -2.7530    4.3770 c         1 MOL      0.500100
     56 O9         -0.8710   -2.4360    5.5880 o         1 MOL     -0.534881
     57 H25        -2.6280   -4.5050    1.9230 hn        1 MOL      0.277303
     58 H26        -1.4950   -4.7450    4.1430 h1        1 MOL      0.163221
     59 H27        -2.8820   -3.5260    4.4830 h1        1 MOL      0.163221
     60 N6         -0.2440   -2.1320    3.4430 n         1 MOL     -0.194809
     61 C19         0.5220   -0.9080    3.6730 c3        1 MOL     -0.187993
     62 C20        -0.2810    0.3790    3.7910 c         1 MOL      0.653108
     63 O10         0.3560    1.4290    3.8960 o         1 MOL     -0.582952
     64 C21         1.5420   -0.7410    2.4840 c3        1 MOL     -0.097603
     65 C22         2.5040   -1.9190    2.4400 c         1 MOL      0.663016
     66 N7          3.2660   -2.1700    3.4280 n         1 MOL     -0.608487
     67 O11         2.5350   -2.6420    1.4200 o         1 MOL     -0.773430
     68 H28        -0.5410   -2.3560    2.5110 hn        1 MOL      0.000363
     69 H29         1.0360   -0.9830    4.6380 h1        1 MOL      0.110239
     70 H30         2.1860    0.1190    2.6450 hc        1 MOL      0.132893
     71 H31         1.0380   -0.6470    1.5280 hc        1 MOL      0.132893
     72 H32         3.4090   -1.5430    4.1990 hn        1 MOL      0.325850
     73 H33         3.6700   -3.1020    3.3760 hn        1 MOL      0.325850
     74 N8         -1.6090    0.3310    3.6560 n         1 MOL     -0.393668
     75 C23        -2.5230    1.5000    3.8390 c3        1 MOL     -0.150246
     76 C24        -2.4670    2.6080    2.7290 c         1 MOL      0.612566
     77 O12        -2.4240    3.7440    3.0810 o         1 MOL     -0.534775
     78 H34        -2.0510   -0.5220    3.3590 hn        1 MOL      0.348573
     79 H35        -2.2830    2.0730    4.7300 h1        1 MOL      0.109598
     80 H36        -3.5390    1.1340    3.9940 h1        1 MOL      0.109598
     81 N9         -2.2590    2.2940    1.4370 n         1 MOL     -0.533871
     82 C25        -1.6450    3.2080    0.3920 c3        1 MOL      0.290070
     83 C26        -0.5790    2.4330   -0.3450 c         1 MOL      0.344525
     84 O13        -0.6050    1.2420   -0.5020 o         1 MOL     -0.471536
     85 C27        -2.7270    3.8480   -0.4370 c3        1 MOL     -0.217939
     86 C28        -2.3980    5.2010   -0.9480 ca        1 MOL     -0.061767
     87 C29        -2.3040    6.3060   -0.0920 ca        1 MOL      0.007125
     88 C30        -2.2450    5.3210   -2.3510 ca        1 MOL      0.007125
     89 C31        -1.9460    7.5450   -0.6210 ca        1 MOL     -0.335310
     90 C32        -1.8470    6.5660   -2.8650 ca        1 MOL     -0.335310
     91 C33        -1.7620    7.6850   -1.9930 ca        1 MOL      0.364532
     92 O14        -1.5060    8.9420   -2.4390 oh        1 MOL     -0.489239
     93 H37        -2.2430    1.3060    1.2190 hn        1 MOL      0.226677
     94 H38        -1.1370    4.0070    0.9300 h1        1 MOL      0.035162
     95 H39        -3.6650    3.9710    0.1170 hc        1 MOL      0.131095
     96 H40        -2.9580    3.1930   -1.2660 hc        1 MOL      0.131095
     97 H41        -2.4520    6.1040    0.9560 ha        1 MOL      0.095475
     98 H42        -2.5220    4.4690   -2.9410 ha        1 MOL      0.095475
     99 H43        -1.8490    8.4140    0.0060 ha        1 MOL      0.160429
    100 H44        -1.6180    6.7850   -3.9040 ha        1 MOL      0.160429
    101 H45        -1.5900    9.0010   -3.3910 ho        1 MOL      0.359095
    102 N10         0.4360    3.1160   -0.9050 n         1 MOL     -0.216430
    103 C34         1.7190    2.5200   -1.3600 c3        1 MOL      0.049235
    104 C35         2.6780    2.4150   -0.1140 c         1 MOL      0.339482
    105 O15         3.4810    1.5320   -0.1040 o         1 MOL     -0.505697
    106 C36         2.4240    3.2380   -2.5790 c3        1 MOL      0.178890
    107 C37         1.7730    2.9170   -3.9020 c3        1 MOL     -0.249316
    108 C38         3.9660    3.0980   -2.7560 c3        1 MOL     -0.399853
    109 C39         0.2860    3.2250   -4.0000 c3        1 MOL     -0.009416
    110 H46         0.4300    4.1070   -0.7190 hn        1 MOL      0.112838
    111 H47         1.6050    1.4680   -1.6310 h1        1 MOL      0.075483
    112 H48         2.3170    4.2800   -2.2840 hc        1 MOL      0.016726
    113 H49         1.8480    1.8520   -4.1210 hc        1 MOL      0.097008
    114 H50         2.1110    3.5270   -4.7390 hc        1 MOL      0.097008
    115 H51         4.2520    2.0630   -2.9670 hc        1 MOL      0.107871
    116 H52         4.2540    3.7410   -3.5900 hc        1 MOL      0.107871
    117 H53         4.5340    3.4260   -1.8820 hc        1 MOL      0.107871
    118 H54        -0.2790    2.6070   -3.3150 hc        1 MOL     -0.005232
    119 H55         0.1410    4.2820   -3.7870 hc        1 MOL     -0.005232
    120 H56        -0.0190    3.0100   -5.0260 hc        1 MOL     -0.005232
    121 N11         2.5380    3.2830    0.9250 n         1 MOL     -0.300643
    122 C40         3.2250    3.1390    2.2580 c3        1 MOL     -0.107247
    123 C41         4.7890    3.2240    2.1180 c         1 MOL      0.473245
    124 O16         5.5400    2.7920    3.0460 o         1 MOL     -0.503073
    125 C42         2.6790    4.2660    3.1870 c3        1 MOL      0.101997
    126 O17         3.0750    5.5420    2.7960 oh        1 MOL     -0.650635
    127 H57         1.8850    4.0550    0.8460 hn        1 MOL      0.295913
    128 H58         2.9820    2.1480    2.6270 h1        1 MOL      0.088821
    129 H59         3.0720    4.1570    4.2000 h1        1 MOL      0.072126
    130 H60         1.5890    4.1790    3.1370 h1        1 MOL      0.072126
    131 H61         2.7810    6.2380    3.3920 ho        1 MOL      0.446172
    132 N12         5.3110    3.7060    0.9850 n         1 MOL     -0.126534
    133 C43         6.6570    3.7020    0.5810 c3        1 MOL      0.135627
    134 C44         7.4510    2.4220    0.9820 c         1 MOL      0.567725
    135 O18         8.5960    2.4840    1.3510 o         1 MOL     -0.517635
    136 C45         7.3800    4.9830    1.0010 c3        1 MOL     -0.235992
    137 H62         4.6530    4.2780    0.4740 hn        1 MOL      0.158731
    138 H63         6.6550    3.7240   -0.5080 h1        1 MOL      0.029158
    139 H64         8.3010    5.0830    0.4160 hc        1 MOL      0.061161
    140 H65         6.8100    5.8880    0.7970 hc        1 MOL      0.061161
    141 H66         7.7430    4.8880    2.0310 hc        1 MOL      0.061161
    142 N13         6.7860    1.2500    0.7330 n         1 MOL     -0.602816
    143 C46         7.2130   -0.1660    0.9000 c3        1 MOL      0.680075
    144 C47         7.1580   -1.0140   -0.4740 c         1 MOL      0.289827
    145 O19         6.3240   -0.7790   -1.3290 o         1 MOL     -0.414438
    146 C48         6.2710   -0.8400    1.9490 c3        1 MOL     -0.697054
    147 H67         5.8630    1.4270    0.3670 hn        1 MOL      0.151155
    148 H68         8.2590   -0.1290    1.1790 h1        1 MOL     -0.073649
    149 H69         6.5890   -0.4180    2.9050 hc        1 MOL      0.174926
    150 H70         5.2470   -0.5540    1.7070 hc        1 MOL      0.174926
    151 H71         6.3050   -1.9200    1.7880 hc        1 MOL      0.174926
    152 N14         8.1230   -1.9430   -0.5810 n         1 MOL     -0.483065
    153 C49         8.3140   -2.8540   -1.6720 c3        1 MOL      0.147217
    154 C50         8.2610   -2.2160   -3.0750 c         1 MOL      0.354484
    155 O20         7.7930   -2.7420   -4.0700 o         1 MOL     -0.440175
    156 C51         7.4700   -4.1350   -1.4130 c3        1 MOL     -0.167416
    157 C52         5.9550   -4.0210   -1.6880 c3        1 MOL     -0.464950
    158 C53         5.4380   -5.4160   -1.9030 c         1 MOL      0.971467
    159 O21         5.1120   -5.8630   -3.0240 o         1 MOL     -0.784875
    160 O22         5.4060   -6.1260   -0.8970 o         1 MOL     -0.784875
    161 H72         8.8520   -2.0080    0.1180 hn        1 MOL      0.299683
    162 H73         9.3820   -3.0860   -1.6690 h1        1 MOL      0.034724
    163 H74         7.7510   -4.5260   -0.4320 hc        1 MOL      0.078013
    164 H75         7.8930   -4.9440   -2.0030 hc        1 MOL      0.078013
    165 H76         5.7540   -3.3940   -2.5600 hc        1 MOL      0.142454
    166 H77         5.4850   -3.5420   -0.8310 hc        1 MOL      0.142454
    167 N15         8.7930   -0.9730   -3.2250 n         1 MOL     -0.228042
    168 C54         8.6670   -0.0410   -4.2870 c3        1 MOL     -0.157265
    169 H78         9.1880    0.8800   -4.0240 h1        1 MOL      0.080909
    170 H79         9.1050   -0.4600   -5.1930 h1        1 MOL      0.080909
    171 H80         7.6130    0.1760   -4.4580 h1        1 MOL      0.080909
    172 H81         9.1640   -0.4850   -2.4140 hn        1 MOL      0.204838
    173 Ca1         1.0760   -3.9330   -0.5240 Ca        1 MOL      1.872332
    174 O23         1.0380   -1.1500   -1.1610 oh        1 MOL     -0.856879
    175 H82         1.7860   -0.6400   -1.4640 ho        1 MOL      0.417293
    176 H83         0.4270   -0.4840   -0.8150 ho        1 MOL      0.417293
    177 O24         2.8690   -2.9720   -2.0850 oh        1 MOL     -0.856879
    178 H84         3.2820   -2.1310   -1.8810 ho        1 MOL      0.417293
    179 H85         3.1120   -3.1550   -2.9870 ho        1 MOL      0.417293
    180 O25         0.2230   -6.4370   -0.8870 oh        1 MOL     -0.856879
    181 H86         0.9970   -6.9890   -0.7600 ho        1 MOL      0.417293
    182 H87        -0.5150   -7.0150   -0.7020 ho        1 MOL      0.417293
    183 O26         0.5770   -4.2680   -3.2450 oh        1 MOL     -0.856879
    184 H88         1.1150   -4.6770   -3.9150 ho        1 MOL      0.417293
    185 H89        -0.3070   -4.2390   -3.6230 ho        1 MOL      0.417293
    186 O27         3.1740   -5.3180    0.2280 oh        1 MOL     -0.856879
    187 H90         3.4100   -5.1740    1.1440 ho        1 MOL      0.417293
    188 H91         3.9470   -5.7200   -0.1700 ho        1 MOL      0.417293
    189 O28         0.5490   -5.0750    1.8470 oh        1 MOL     -0.856879
    190 H92         0.9050   -5.0500    2.7330 ho        1 MOL      0.417293
    191 H93        -0.1860   -5.6940    1.9030 ho        1 MOL      0.417293
@<TRIPOS>BOND
     1    1    2 1   
     2    1    4 1   
     3    1    5 1   
     4    1    6 1   
     5    2    3 2   
     6    2    7 1   
     7    7    8 1   
     8    7   15 1   
     9    8    9 1   
    10    8   11 1   
    11    8   16 1   
    12    9   10 2   
    13    9   19 1   
    14   11   12 1   
    15   11   17 1   
    16   11   18 1   
    17   12   13 1   
    18   12   14 1   
    19   19   20 1   
    20   19   28 1   
    21   20   21 1   
    22   20   23 1   
    23   20   29 1   
    24   21   22 2   
    25   21   41 1   
    26   23   24 1   
    27   23   30 1   
    28   23   31 1   
    29   24   25 1   
    30   24   32 1   
    31   24   33 1   
    32   25   26 1   
    33   25   34 1   
    34   25   35 1   
    35   26   27 1   
    36   26   36 1   
    37   26   37 1   
    38   27   38 1   
    39   27   39 1   
    40   27   40 1   
    41   41   42 1   
    42   41   49 1   
    43   42   43 1   
    44   42   45 1   
    45   42   50 1   
    46   43   44 2   
    47   43   53 1   
    48   45   46 1   
    49   45   51 1   
    50   45   52 1   
    51   46   47 1   
    52   46   48 1   
    53   53   54 1   
    54   53   57 1   
    55   54   55 1   
    56   54   58 1   
    57   54   59 1   
    58   55   56 2   
    59   55   60 1   
    60   60   61 1   
    61   60   68 1   
    62   61   62 1   
    63   61   64 1   
    64   61   69 1   
    65   62   63 2   
    66   62   74 1   
    67   64   65 1   
    68   64   70 1   
    69   64   71 1   
    70   65   66 1   
    71   65   67 2   
    72   66   72 1   
    73   66   73 1   
    74   74   75 1   
    75   74   78 1   
    76   75   76 1   
    77   75   79 1   
    78   75   80 1   
    79   76   77 2   
    80   76   81 1   
    81   81   82 1   
    82   81   93 1   
    83   82   83 1   
    84   82   85 1   
    85   82   94 1   
    86   83   84 2   
    87   83  102 1   
    88   85   86 1   
    89   85   95 1   
    90   85   96 1   
    91   86   87 ar  
    92   86   88 ar  
    93   87   89 ar  
    94   87   97 1   
    95   88   90 ar  
    96   88   98 1   
    97   89   91 ar  
    98   89   99 1   
    99   90   91 ar  
   100   90  100 1   
   101   91   92 1   
   102   92  101 1   
   103  102  103 1   
   104  102  110 1   
   105  103  104 1   
   106  103  106 1   
   107  103  111 1   
   108  104  105 2   
   109  104  121 1   
   110  106  107 1   
   111  106  108 1   
   112  106  112 1   
   113  107  109 1   
   114  107  113 1   
   115  107  114 1   
   116  108  115 1   
   117  108  116 1   
   118  108  117 1   
   119  109  118 1   
   120  109  119 1   
   121  109  120 1   
   122  121  122 1   
   123  121  127 1   
   124  122  123 1   
   125  122  125 1   
   126  122  128 1   
   127  123  124 2   
   128  123  132 1   
   129  125  126 1   
   130  125  129 1   
   131  125  130 1   
   132  126  131 1   
   133  132  133 1   
   134  132  137 1   
   135  133  134 1   
   136  133  136 1   
   137  133  138 1   
   138  134  135 2   
   139  134  142 1   
   140  136  139 1   
   141  136  140 1   
   142  136  141 1   
   143  142  143 1   
   144  142  147 1   
   145  143  144 1   
   146  143  146 1   
   147  143  148 1   
   148  144  145 2   
   149  144  152 1   
   150  146  149 1   
   151  146  150 1   
   152  146  151 1   
   153  152  153 1   
   154  152  161 1   
   155  153  154 1   
   156  153  156 1   
   157  153  162 1   
   158  154  155 2   
   159  154  167 1   
   160  156  157 1   
   161  156  163 1   
   162  156  164 1   
   163  157  158 1   
   164  157  165 1   
   165  157  166 1   
   166  158  159 1   
   167  158  160 1   
   168  167  168 1   
   169  167  172 1   
   170  168  169 1   
   171  168  170 1   
   172  168  171 1   
   173  174  175 1   
   174  174  176 1   
   175  177  178 1   
   176  177  179 1   
   177  180  181 1   
   178  180  182 1   
   179  183  184 1   
   180  183  185 1   
   181  186  187 1   
   182  186  188 1   
   183  189  190 1   
   184  189  191 1   
@<TRIPOS>SUBSTRUCTURE
     1 MOL         1 TEMP              0 ****  ****    0 ROOT
