@<TRIPOS>MOLECULE
MOL
  181   177     1     0     0
SMALL
resp


@<TRIPOS>ATOM
      1 C1          6.3370   -5.0000    5.6170 c3        1 MOL     -0.316862
      2 C2          5.4100   -4.2190    4.5550 c         1 MOL      0.614788
      3 O1          4.2720   -3.8410    4.8880 o         1 MOL     -0.565218
      4 H1          7.3180   -5.1790    5.1790 hc        1 MOL      0.077883
      5 H2          6.4470   -4.3950    6.5170 hc        1 MOL      0.077883
      6 H3          5.8740   -5.9530    5.8730 hc        1 MOL      0.077883
      7 N1          5.8190   -3.9840    3.3240 n         1 MOL     -0.427363
      8 C3          7.1470   -4.3010    2.8190 c3        1 MOL      0.136052
      9 C4          7.0820   -4.4760    1.2630 c         1 MOL      0.485829
     10 O2          6.0950   -4.4290    0.5630 o         1 MOL     -0.422675
     11 C5          8.2660   -3.2430    3.2110 c3        1 MOL     -0.238618
     12 C6          7.9910   -1.8410    2.5540 c         1 MOL      0.878140
     13 O3          7.0230   -1.1040    2.8440 o         1 MOL     -0.795947
     14 O4          8.8000   -1.4330    1.6780 o         1 MOL     -0.795947
     15 H4          5.1110   -3.8110    2.6330 hn        1 MOL      0.290830
     16 H5          7.3780   -5.3110    3.1530 h1        1 MOL      0.039784
     17 H6          9.1730   -3.6880    2.8070 hc        1 MOL      0.026963
     18 H7          8.4520   -3.1810    4.2840 hc        1 MOL      0.026963
     19 N2          8.2330   -4.6500    0.6130 n         1 MOL     -0.568963
     20 C7          8.4710   -5.1100   -0.7140 c3        1 MOL      0.119870
     21 C8          7.8940   -4.2740   -1.8840 c         1 MOL      0.309191
     22 O5          7.9080   -4.7180   -3.0500 o         1 MOL     -0.510467
     23 C9          8.0820   -6.6180   -0.8840 c3        1 MOL     -0.286950
     24 H8          9.0430   -4.3720    1.1490 hn        1 MOL      0.328152
     25 H9          9.5410   -5.1930   -0.8570 h1        1 MOL      0.073389
     26 H10         7.0020   -6.7520   -0.8110 hc        1 MOL      0.090502
     27 H11         8.4680   -6.9600   -1.8370 hc        1 MOL      0.090502
     28 H12         8.3420   -7.3680   -0.1350 hc        1 MOL      0.090502
     29 N3          7.3200   -3.0730   -1.5570 n         1 MOL      0.047497
     30 C10         6.8710   -1.9970   -2.5130 c3        1 MOL      0.061610
     31 C11         7.7780   -0.7020   -2.4400 c         1 MOL      0.319207
     32 O6          8.6120   -0.4950   -1.5700 o         1 MOL     -0.512124
     33 C12         5.3510   -1.7680   -2.2620 c3        1 MOL     -0.122672
     34 C13         5.0270   -1.5020   -0.7950 c         1 MOL      0.711024
     35 O7          3.8540   -1.7130   -0.4170 o         1 MOL     -0.645144
     36 O8          5.9250   -1.0830   -0.0340 o         1 MOL     -0.645144
     37 H13         7.2170   -2.7600   -0.6060 hn        1 MOL     -0.032465
     38 H14         7.0120   -2.3780   -3.5260 h1        1 MOL      0.006232
     39 H15         4.7770   -2.6710   -2.4700 hc        1 MOL      0.041028
     40 H16         5.0060   -0.9420   -2.8790 hc        1 MOL      0.041028
     41 N4          7.5900    0.1950   -3.3630 n         1 MOL     -0.136432
     42 C14         7.9120    1.5670   -3.4110 c3        1 MOL     -0.516793
     43 C15         7.1010    2.3560   -2.3790 c         1 MOL      0.809070
     44 O9          6.9550    1.8960   -1.2400 o         1 MOL     -0.680927
     45 H17         6.8810   -0.0740   -4.0180 hn        1 MOL      0.249953
     46 H18         7.5550    1.9470   -4.3700 h1        1 MOL      0.186510
     47 H19         8.9900    1.6790   -3.2560 h1        1 MOL      0.186510
     48 N5          6.4780    3.5000   -2.8170 n         1 MOL     -0.668729
     49 C16         5.4680    4.2380   -2.0050 c3        1 MOL      0.331915
     50 C17         4.0730    3.5240   -1.8350 c         1 MOL      0.498961
     51 O10         3.6800    2.6250   -2.6170 o         1 MOL     -0.466205
     52 C18         5.2580    5.5360   -2.8380 c3        1 MOL     -0.371139
     53 C19         6.4760    6.4520   -2.9300 c         1 MOL      0.773763
     54 N6          6.5350    7.4390   -3.7840 n         1 MOL     -0.836698
     55 O11         7.4710    6.2060   -2.2250 o         1 MOL     -0.593012
     56 H20         6.6850    3.7910   -3.7650 hn        1 MOL      0.339336
     57 H21         5.9090    4.5050   -1.0590 h1        1 MOL     -0.027394
     58 H22         4.5420    6.1080   -2.2530 hc        1 MOL      0.104695
     59 H23         4.8970    5.2610   -3.8250 hc        1 MOL      0.104695
     60 H24         5.8660    7.5610   -4.5340 hn        1 MOL      0.375593
     61 H25         7.3230    8.0700   -3.8280 hn        1 MOL      0.375593
     62 N7          3.4230    3.8980   -0.7400 n         1 MOL     -0.512312
     63 C20         2.0610    3.4830   -0.3790 c3        1 MOL      0.154508
     64 C21         0.9240    4.3420   -0.9030 c         1 MOL      0.500958
     65 O12         1.0730    4.9050   -2.0270 o         1 MOL     -0.545031
     66 H26         3.9320    4.5770   -0.1840 hn        1 MOL      0.289014
     67 H27         2.0190    3.7320    0.6830 h1        1 MOL      0.055683
     68 H28         1.7740    2.4440   -0.4960 h1        1 MOL      0.055683
     69 N8         -0.2730    4.4180   -0.2540 n         1 MOL     -0.426516
     70 C22        -0.6860    3.8800    1.0210 c3        1 MOL     -0.103226
     71 C23        -2.1290    3.3170    0.9280 c         1 MOL      0.596956
     72 O13        -2.8770    3.8970    0.1770 o         1 MOL     -0.500647
     73 C24        -0.6560    4.8640    2.1940 c3        1 MOL      0.335839
     74 C25         0.8370    5.4100    2.4820 c3        1 MOL     -0.323973
     75 O14        -1.4340    6.0300    1.9550 oh        1 MOL     -0.588079
     76 H29        -1.0180    4.8450   -0.7910 hn        1 MOL      0.325061
     77 H30        -0.0880    3.0180    1.3240 h1        1 MOL      0.051453
     78 H31        -1.1390    4.4700    3.0870 h1        1 MOL      0.034297
     79 H32        -1.3530    6.6180    2.7150 ho        1 MOL      0.395780
     80 H33         1.4710    4.6520    2.9430 hc        1 MOL      0.059951
     81 H34         1.3600    5.6720    1.5640 hc        1 MOL      0.059951
     82 H35         0.8050    6.3290    3.0630 hc        1 MOL      0.059951
     83 N9         -2.4100    2.3330    1.7090 n         1 MOL     -0.437589
     84 C26        -3.6470    1.6260    1.8590 c3        1 MOL     -0.184507
     85 C27        -4.4920    2.4450    2.8880 c         1 MOL      0.744127
     86 O15        -3.9730    2.6050    4.0020 o         1 MOL     -0.632275
     87 C28        -3.3570    0.2280    2.3980 c3        1 MOL      0.092420
     88 C29        -2.6860   -0.7160    1.3710 c3        1 MOL     -0.012080
     89 C30        -4.6480   -0.4940    2.8180 c3        1 MOL     -0.322366
     90 C31        -2.3120   -2.0890    1.9280 c3        1 MOL     -0.284297
     91 H36        -1.6660    2.0200    2.3130 hn        1 MOL      0.272217
     92 H37        -4.0940    1.5230    0.8610 h1        1 MOL      0.184574
     93 H38        -2.6290    0.2720    3.2000 hc        1 MOL      0.035444
     94 H39        -1.7590   -0.2110    1.0960 hc        1 MOL      0.022822
     95 H40        -3.3020   -0.7780    0.4790 hc        1 MOL      0.022822
     96 H41        -4.4670   -1.3860    3.4260 hc        1 MOL      0.078335
     97 H42        -5.2770    0.1670    3.4140 hc        1 MOL      0.078335
     98 H43        -5.2770   -0.8340    1.9930 hc        1 MOL      0.078335
     99 H44        -3.1300   -2.8040    2.0680 hc        1 MOL      0.080500
    100 H45        -1.6310   -2.6250    1.2620 hc        1 MOL      0.080500
    101 H46        -1.8380   -1.8990    2.8860 hc        1 MOL      0.080500
    102 N10        -5.6860    2.9330    2.6300 n         1 MOL     -0.606013
    103 C32        -6.3790    3.0510    1.2780 c3        1 MOL      0.544481
    104 C33        -7.4600    2.0140    1.0610 c         1 MOL      0.457586
    105 O16        -7.8000    1.2890    1.9990 o         1 MOL     -0.547688
    106 C34        -6.9880    4.4400    1.0460 c3        1 MOL     -0.367061
    107 C35        -7.8620    5.0700    2.2120 c         1 MOL      0.765673
    108 O17        -7.9520    4.5640    3.3400 o         1 MOL     -0.727195
    109 O18        -8.4920    6.1170    1.9290 o         1 MOL     -0.727195
    110 H47        -6.3020    3.0650    3.4150 hn        1 MOL      0.321484
    111 H48        -5.5730    2.8340    0.5690 h1        1 MOL     -0.126904
    112 H49        -7.5370    4.3950    0.1080 hc        1 MOL      0.042292
    113 H50        -6.1590    5.1470    0.9550 hc        1 MOL      0.042292
    114 N11        -7.9360    1.8310   -0.1820 n         1 MOL     -0.662933
    115 C36        -8.8520    0.6950   -0.4640 c3        1 MOL      0.569943
    116 C37        -8.8110    0.2910   -1.9090 c         1 MOL      0.083399
    117 O19        -8.9590    1.2040   -2.7840 o         1 MOL     -0.499422
    118 C38       -10.2370    1.1030   -0.1400 c3        1 MOL     -0.265925
    119 C39       -11.0880   -0.1000   -0.0510 ca        1 MOL      0.110913
    120 C40       -11.9020   -0.4000   -1.1610 ca        1 MOL     -0.150456
    121 C41       -10.9070   -1.0590    0.9360 ca        1 MOL     -0.150456
    122 C42       -12.5120   -1.6540   -1.3180 ca        1 MOL     -0.123120
    123 C43       -11.5860   -2.2750    0.8910 ca        1 MOL     -0.123120
    124 C44       -12.3950   -2.5840   -0.1990 ca        1 MOL     -0.166969
    125 H51        -7.6620    2.4800   -0.9080 hn        1 MOL      0.361649
    126 H52        -8.6370   -0.1550    0.1730 h1        1 MOL     -0.006781
    127 H53       -10.5850    1.8280   -0.8670 hc        1 MOL      0.093600
    128 H54       -10.3090    1.4510    0.8890 hc        1 MOL      0.093600
    129 H55       -12.0320    0.2710   -1.9870 ha        1 MOL      0.120204
    130 H56       -10.2090   -0.8620    1.7290 ha        1 MOL      0.120204
    131 H57       -13.0380   -1.8540   -2.2360 ha        1 MOL      0.110130
    132 H58       -11.6040   -3.0290    1.6660 ha        1 MOL      0.110130
    133 H59       -12.7840   -3.5890   -0.2520 ha        1 MOL      0.101802
    134 N12        -8.6020   -0.9970   -2.2280 n         1 MOL      0.203736
    135 C45        -8.3900   -2.1650   -1.3680 c3        1 MOL     -0.135860
    136 C46        -6.8860   -2.2600   -1.0100 c         1 MOL      0.290945
    137 O20        -6.3480   -1.2830   -0.5420 o         1 MOL     -0.512631
    138 C47        -8.9250   -3.3980   -2.2040 c3        1 MOL     -0.434382
    139 C48        -8.8690   -2.8550   -3.6600 c3        1 MOL      0.126451
    140 C49        -9.0200   -1.4080   -3.5980 c3        1 MOL     -0.090284
    141 H60        -8.8510   -2.1000   -0.3830 h1        1 MOL      0.131364
    142 H61        -8.2960   -4.2870   -2.1590 hc        1 MOL      0.127811
    143 H62        -9.9580   -3.6220   -1.9200 hc        1 MOL      0.127811
    144 H63        -7.9010   -3.0590   -4.1210 hc        1 MOL      0.004832
    145 H64        -9.7110   -3.2900   -4.1960 hc        1 MOL      0.004832
    146 H65        -8.3640   -0.8310   -4.2460 h1        1 MOL      0.058285
    147 H66       -10.0630   -1.1040   -3.7690 h1        1 MOL      0.058285
    148 N13        -6.3530   -3.4640   -1.0380 n         1 MOL     -0.002000
    149 C50        -5.0560   -3.8310   -0.4610 c3        1 MOL      0.323599
    150 C51        -5.0300   -5.2050    0.1160 c         1 MOL      0.332711
    151 O21        -4.1350   -6.0150   -0.1810 o         1 MOL     -0.486439
    152 C52        -3.9410   -3.5230   -1.4170 c3        1 MOL     -0.228797
    153 C53        -4.0430   -4.3330   -2.6940 c3        1 MOL     -0.253482
    154 C54        -2.7710   -4.0350   -3.5620 c         1 MOL      0.768846
    155 O22        -2.3930   -2.8690   -3.8140 o         1 MOL     -0.705339
    156 O23        -2.1420   -4.9890   -4.0760 o         1 MOL     -0.705339
    157 H67        -6.8230   -4.1880   -1.5640 hn        1 MOL      0.156421
    158 H68        -5.0120   -3.2150    0.4330 h1        1 MOL      0.046081
    159 H69        -2.9840   -3.8180   -1.0110 hc        1 MOL      0.090793
    160 H70        -3.9900   -2.4640   -1.6730 hc        1 MOL      0.090793
    161 H71        -4.8790   -3.9500   -3.2820 hc        1 MOL      0.019327
    162 H72        -4.2120   -5.3990   -2.5620 hc        1 MOL      0.019327
    163 N14        -6.0630   -5.6280    0.8460 n         1 MOL     -0.447782
    164 C55        -7.1300   -4.8050    1.5960 c3        1 MOL     -0.018102
    165 H73        -7.8820   -5.4770    2.0090 h1        1 MOL      0.045644
    166 H74        -6.6570   -4.2470    2.4050 h1        1 MOL      0.045644
    167 H75        -7.6050   -4.1100    0.9040 h1        1 MOL      0.045644
    168 H76        -6.1490   -6.6180    1.0450 hn        1 MOL      0.291771
    169 Ca1         7.3910    0.7100    1.0350 Ca        1 MOL      1.813469
    170 O24         4.8870    1.7440    1.1010 oh        1 MOL     -0.839555
    171 H77         4.0360    1.3920    0.8370 ho        1 MOL      0.398443
    172 H78         4.6980    2.6380    1.3650 ho        1 MOL      0.398443
    173 O25         8.2470    1.4150    3.4050 oh        1 MOL     -0.839555
    174 H79         8.8840    0.9870    3.9710 ho        1 MOL      0.398443
    175 H80         8.4870    2.3410    3.4230 ho        1 MOL      0.398443
    176 O26         9.8540    1.1340    0.3320 oh        1 MOL     -0.839555
    177 H81         9.6810    0.7670   -0.5310 ho        1 MOL      0.398443
    178 H82        10.7940    1.2870    0.3460 ho        1 MOL      0.398443
    179 O27         7.6950    3.6670    1.1220 oh        1 MOL     -0.839555
    180 H83         7.7920    4.1990    0.3370 ho        1 MOL      0.398443
    181 H84         7.8070    4.2710    1.8450 ho        1 MOL      0.398443
@<TRIPOS>BOND
     1    1    2 1   
     2    1    4 1   
     3    1    5 1   
     4    1    6 1   
     5    2    3 2   
     6    2    7 1   
     7    7    8 1   
     8    7   15 1   
     9    8    9 1   
    10    8   11 1   
    11    8   16 1   
    12    9   10 2   
    13    9   19 1   
    14   11   12 1   
    15   11   17 1   
    16   11   18 1   
    17   12   13 1   
    18   12   14 1   
    19   19   20 1   
    20   19   24 1   
    21   20   21 1   
    22   20   23 1   
    23   20   25 1   
    24   21   22 2   
    25   21   29 1   
    26   23   26 1   
    27   23   27 1   
    28   23   28 1   
    29   29   30 1   
    30   29   37 1   
    31   30   31 1   
    32   30   33 1   
    33   30   38 1   
    34   31   32 2   
    35   31   41 1   
    36   33   34 1   
    37   33   39 1   
    38   33   40 1   
    39   34   35 1   
    40   34   36 1   
    41   41   42 1   
    42   41   45 1   
    43   42   43 1   
    44   42   46 1   
    45   42   47 1   
    46   43   44 2   
    47   43   48 1   
    48   48   49 1   
    49   48   56 1   
    50   49   50 1   
    51   49   52 1   
    52   49   57 1   
    53   50   51 2   
    54   50   62 1   
    55   52   53 1   
    56   52   58 1   
    57   52   59 1   
    58   53   54 1   
    59   53   55 2   
    60   54   60 1   
    61   54   61 1   
    62   62   63 1   
    63   62   66 1   
    64   63   64 1   
    65   63   67 1   
    66   63   68 1   
    67   64   65 2   
    68   64   69 1   
    69   69   70 1   
    70   69   76 1   
    71   70   71 1   
    72   70   73 1   
    73   70   77 1   
    74   71   72 2   
    75   71   83 1   
    76   73   74 1   
    77   73   75 1   
    78   73   78 1   
    79   74   80 1   
    80   74   81 1   
    81   74   82 1   
    82   75   79 1   
    83   83   84 1   
    84   83   91 1   
    85   84   85 1   
    86   84   87 1   
    87   84   92 1   
    88   85   86 2   
    89   85  102 1   
    90   87   88 1   
    91   87   89 1   
    92   87   93 1   
    93   88   90 1   
    94   88   94 1   
    95   88   95 1   
    96   89   96 1   
    97   89   97 1   
    98   89   98 1   
    99   90   99 1   
   100   90  100 1   
   101   90  101 1   
   102  102  103 1   
   103  102  110 1   
   104  103  104 1   
   105  103  106 1   
   106  103  111 1   
   107  104  105 2   
   108  104  114 1   
   109  106  107 1   
   110  106  112 1   
   111  106  113 1   
   112  107  108 1   
   113  107  109 1   
   114  114  115 1   
   115  114  125 1   
   116  115  116 1   
   117  115  118 1   
   118  115  126 1   
   119  116  117 2   
   120  116  134 1   
   121  118  119 1   
   122  118  127 1   
   123  118  128 1   
   124  119  120 ar  
   125  119  121 ar  
   126  120  122 ar  
   127  120  129 1   
   128  121  123 ar  
   129  121  130 1   
   130  122  124 ar  
   131  122  131 1   
   132  123  124 ar  
   133  123  132 1   
   134  124  133 1   
   135  134  135 1   
   136  134  140 1   
   137  135  136 1   
   138  135  138 1   
   139  135  141 1   
   140  136  137 2   
   141  136  148 1   
   142  138  139 1   
   143  138  142 1   
   144  138  143 1   
   145  139  140 1   
   146  139  144 1   
   147  139  145 1   
   148  140  146 1   
   149  140  147 1   
   150  148  149 1   
   151  148  157 1   
   152  149  150 1   
   153  149  152 1   
   154  149  158 1   
   155  150  151 2   
   156  150  163 1   
   157  152  153 1   
   158  152  159 1   
   159  152  160 1   
   160  153  154 1   
   161  153  161 1   
   162  153  162 1   
   163  154  155 1   
   164  154  156 1   
   165  163  164 1   
   166  163  168 1   
   167  164  165 1   
   168  164  166 1   
   169  164  167 1   
   170  170  171 1   
   171  170  172 1   
   172  173  174 1   
   173  173  175 1   
   174  176  177 1   
   175  176  178 1   
   176  179  180 1   
   177  179  181 1   
@<TRIPOS>SUBSTRUCTURE
     1 MOL         1 TEMP              0 ****  ****    0 ROOT
