@<TRIPOS>MOLECULE
MOL
  192   187     1     0     0
SMALL
resp


@<TRIPOS>ATOM
      1 C1          9.1870    0.6380    2.3390 c3        1 MOL     -0.592473
      2 C2          8.0080    0.3970    1.3820 c         1 MOL      0.769324
      3 O1          6.8350    0.1220    1.7380 o         1 MOL     -0.717968
      4 H1          9.6550    1.5950    2.1060 hc        1 MOL      0.159085
      5 H2          8.8240    0.6530    3.3670 hc        1 MOL      0.159085
      6 H3          9.9190   -0.1610    2.2230 hc        1 MOL      0.159085
      7 N1          8.2960    0.3090    0.1030 n         1 MOL     -0.470936
      8 C3          7.3880    0.1610   -1.0290 c3        1 MOL     -0.077347
      9 C4          6.8340   -1.2430   -1.2320 c         1 MOL      0.524219
     10 O2          6.4990   -1.7160   -2.3740 o         1 MOL     -0.459342
     11 C5          8.0320    0.7760   -2.2960 c3        1 MOL     -0.105791
     12 C6          9.3670    0.2500   -2.6850 c         1 MOL      0.698210
     13 O3          9.9400   -0.6330   -2.0110 o         1 MOL     -0.643674
     14 O4          9.8660    0.5420   -3.7880 o         1 MOL     -0.643674
     15 H4          9.2720    0.4380   -0.1170 hn        1 MOL      0.242136
     16 H5          6.4980    0.7780   -0.8750 h1        1 MOL      0.117849
     17 H6          8.1750    1.8480   -2.1420 hc        1 MOL      0.053917
     18 H7          7.3990    0.7530   -3.1900 hc        1 MOL      0.053917
     19 N2          6.7660   -2.0140   -0.1550 n         1 MOL     -0.401546
     20 C7          6.1330   -3.3130   -0.0910 c3        1 MOL      0.054381
     21 C8          4.6330   -3.3670   -0.5900 c         1 MOL      0.378607
     22 O5          4.2920   -4.2660   -1.3900 o         1 MOL     -0.523600
     23 C9          6.3570   -3.8580    1.3850 c3        1 MOL     -0.059869
     24 C10         7.8630   -3.9300    1.8730 c3        1 MOL      0.066185
     25 C11         8.1040   -4.1740    3.3700 c3        1 MOL     -0.109844
     26 C12         9.5900   -4.2220    3.5890 c3        1 MOL      0.115965
     27 N3          9.9290   -4.6870    4.9870 n4        1 MOL     -0.293209
     28 H8          6.9620   -1.5010    0.6980 hn        1 MOL      0.284686
     29 H9          6.6260   -4.0190   -0.7700 h1        1 MOL      0.095688
     30 H10         5.9310   -4.8610    1.4330 hc        1 MOL      0.026968
     31 H11         5.8030   -3.2670    2.1190 hc        1 MOL      0.026968
     32 H12         8.3550   -2.9920    1.5910 hc        1 MOL      0.007602
     33 H13         8.4210   -4.7050    1.3380 hc        1 MOL      0.007602
     34 H14         7.6830   -5.1600    3.5690 hc        1 MOL      0.042068
     35 H15         7.6360   -3.4860    4.0680 hc        1 MOL      0.042068
     36 H16        10.1180   -3.3130    3.3070 hx        1 MOL      0.062868
     37 H17         9.9580   -4.9700    2.8780 hx        1 MOL      0.062868
     38 H18        10.8570   -4.4480    5.3350 hn        1 MOL      0.266934
     39 H19         9.1490   -4.3720    5.5370 hn        1 MOL      0.266934
     40 H20         9.8300   -5.6950    5.0680 hn        1 MOL      0.266934
     41 N4          3.7190   -2.4900   -0.2760 n         1 MOL     -0.244782
     42 C13         3.8410   -1.2760    0.6780 c3        1 MOL      0.004322
     43 C14         3.8250    0.0750   -0.0640 c         1 MOL      0.046831
     44 O6          3.5090    0.0260   -1.2850 o         1 MOL     -0.389857
     45 C15         2.7170   -1.4310    1.7420 c3        1 MOL     -0.154670
     46 C16         1.3120   -1.6910    1.1350 c         1 MOL      0.652365
     47 O7          1.0330   -1.0490    0.0990 o         1 MOL     -0.622367
     48 O8          0.5740   -2.5250    1.7050 o         1 MOL     -0.622367
     49 H21         2.8470   -2.5630   -0.7890 hn        1 MOL      0.273040
     50 H22         4.7860   -1.3320    1.2200 h1        1 MOL      0.173823
     51 H23         2.7380   -0.4370    2.2030 hc        1 MOL      0.031561
     52 H24         2.9750   -2.2350    2.4270 hc        1 MOL      0.031561
     53 N5          4.0740    1.2270    0.5490 n         1 MOL     -0.155613
     54 C17         4.1170    2.4130   -0.3340 c3        1 MOL     -0.061011
     55 C18         2.8160    3.0150   -0.9170 c         1 MOL      0.469872
     56 O9          1.7380    2.4850   -0.6350 o         1 MOL     -0.494908
     57 H25         4.2280    1.2800    1.5400 hn        1 MOL      0.300269
     58 H26         4.6480    2.1830   -1.2550 h1        1 MOL      0.071418
     59 H27         4.6970    3.2200    0.1100 h1        1 MOL      0.071418
     60 N6          2.8460    4.0160   -1.8030 n         1 MOL     -0.468804
     61 C19         1.6580    4.6250   -2.3720 c3        1 MOL      0.272977
     62 C20         1.6300    6.1570   -2.2470 c         1 MOL      0.380248
     63 O10         2.6630    6.8100   -1.9870 o         1 MOL     -0.567549
     64 C21         1.5230    4.1820   -3.8710 c3        1 MOL     -0.245133
     65 C22         1.1320    2.7150   -3.8740 c         1 MOL      0.687484
     66 O11         1.8070    1.9810   -4.6320 o         1 MOL     -0.668808
     67 O12         0.1540    2.3900   -3.2170 o         1 MOL     -0.668808
     68 H28         3.7590    4.3330   -2.1020 hn        1 MOL      0.309364
     69 H29         0.7430    4.2620   -1.8990 h1        1 MOL      0.057650
     70 H30         2.5180    4.2800   -4.2930 hc        1 MOL      0.060792
     71 H31         0.7490    4.7540   -4.3930 hc        1 MOL      0.060792
     72 N7          0.5530    6.8690   -2.1960 n         1 MOL     -0.356982
     73 C23        -0.8680    6.5080   -2.5050 c3        1 MOL     -0.091394
     74 C24        -1.6780    6.1970   -1.1980 c         1 MOL      0.649152
     75 O13        -1.5250    6.8080   -0.1940 o         1 MOL     -0.536611
     76 H32         0.6960    7.8150   -1.8720 hn        1 MOL      0.295058
     77 H33        -0.8190    5.7830   -3.3100 h1        1 MOL      0.078128
     78 H34        -1.3730    7.3370   -3.0110 h1        1 MOL      0.078128
     79 N8         -2.5440    5.2180   -1.2870 n         1 MOL     -0.576280
     80 C25        -3.1580    4.4730   -0.1650 c3        1 MOL     -0.011807
     81 C26        -2.0520    3.6540    0.4890 c         1 MOL      0.721521
     82 O14        -1.3220    3.0470   -0.2710 o         1 MOL     -0.728013
     83 C27        -4.3260    3.6600   -0.7520 c3        1 MOL      0.469367
     84 C28        -5.5140    4.5220   -0.9870 c3        1 MOL     -0.302588
     85 O15        -4.7160    2.6030    0.1540 oh        1 MOL     -0.619572
     86 H35        -2.4930    4.6490   -2.1210 hn        1 MOL      0.253676
     87 H36        -3.6080    5.1850    0.5240 h1        1 MOL      0.084676
     88 H37        -3.9690    3.1280   -1.6310 h1        1 MOL      0.017971
     89 H38        -5.1610    2.0330   -0.4660 ho        1 MOL      0.354122
     90 H39        -5.3880    5.1790   -1.8490 hc        1 MOL      0.079100
     91 H40        -6.3020    3.8770   -1.3640 hc        1 MOL      0.079100
     92 H41        -5.8480    5.0290   -0.0770 hc        1 MOL      0.079100
     93 N9         -1.9860    3.6390    1.8380 n         1 MOL     -0.537539
     94 C29        -1.0640    2.8000    2.7220 c3        1 MOL      0.121760
     95 C30        -1.1590    1.3040    2.4290 c         1 MOL      0.289521
     96 O16        -0.5430    0.8190    1.5100 o         1 MOL     -0.445116
     97 C31         0.3600    3.3320    2.6620 c3        1 MOL      0.277236
     98 C32         0.4470    4.8800    2.5050 c3        1 MOL     -0.212097
     99 C33         1.2440    2.6940    3.7470 c3        1 MOL     -0.407903
    100 C34        -0.2360    5.8430    3.5530 c3        1 MOL     -0.236965
    101 H42        -2.5380    4.3570    2.2830 hn        1 MOL      0.292986
    102 H43        -1.3600    3.0320    3.7440 h1        1 MOL      0.031486
    103 H44         0.7540    2.9400    1.7220 hc        1 MOL     -0.048689
    104 H45        -0.0770    5.0650    1.5690 hc        1 MOL      0.103934
    105 H46         1.5070    5.1450    2.4180 hc        1 MOL      0.103934
    106 H47         2.2370    3.1340    3.7020 hc        1 MOL      0.097340
    107 H48         0.8710    2.8540    4.7540 hc        1 MOL      0.097340
    108 H49         1.2750    1.6070    3.6840 hc        1 MOL      0.097340
    109 H50        -0.1980    6.8760    3.2060 hc        1 MOL      0.067692
    110 H51        -1.2610    5.5280    3.7560 hc        1 MOL      0.067692
    111 H52         0.3360    5.8440    4.4830 hc        1 MOL      0.067692
    112 N10        -1.8850    0.6140    3.2590 n         1 MOL     -0.177712
    113 C35        -2.2560   -0.8200    3.0460 c3        1 MOL     -0.166414
    114 C36        -3.7760   -1.0860    3.1230 c         1 MOL      0.479613
    115 O17        -4.1980   -2.2560    3.0520 o         1 MOL     -0.542634
    116 C37        -1.4180   -1.6190    4.0790 c3        1 MOL      0.358299
    117 C38        -1.6320   -1.3180    5.5260 c3        1 MOL     -0.293558
    118 O18        -0.0320   -1.4500    3.8550 oh        1 MOL     -0.641400
    119 H53        -2.3040    1.0740    4.0540 hn        1 MOL      0.213959
    120 H54        -1.9480   -1.0480    2.0280 h1        1 MOL      0.078913
    121 H55        -1.5890   -2.6680    3.8600 h1        1 MOL      0.034067
    122 H56         0.3530   -1.8940    3.0950 ho        1 MOL      0.394926
    123 H57        -1.1230   -2.0230    6.1800 hc        1 MOL      0.069823
    124 H58        -1.2060   -0.3600    5.8050 hc        1 MOL      0.069823
    125 H59        -2.7040   -1.2680    5.7450 hc        1 MOL      0.069823
    126 N11        -4.5840   -0.0100    3.0420 n         1 MOL     -0.090217
    127 C39        -6.0190   -0.1180    2.9230 c3        1 MOL     -0.385025
    128 C40        -6.3090   -0.5930    1.4480 c         1 MOL      0.600299
    129 O19        -6.3440    0.1870    0.5170 o         1 MOL     -0.518219
    130 C41        -6.7590    1.2150    3.2290 c3        1 MOL      0.518081
    131 C42        -7.3360    1.4940    4.6640 c3        1 MOL     -0.188722
    132 O20        -6.0940    2.3660    2.7600 oh        1 MOL     -0.629429
    133 H60        -4.1510    0.8940    2.9490 hn        1 MOL      0.137260
    134 H61        -6.3670   -0.7930    3.7090 h1        1 MOL      0.118149
    135 H62        -7.6620    1.0770    2.6260 h1        1 MOL     -0.042208
    136 H63        -5.9720    2.3830    1.8140 ho        1 MOL      0.350165
    137 H64        -8.0200    0.6880    4.9310 hc        1 MOL      0.046673
    138 H65        -6.5260    1.5570    5.3920 hc        1 MOL      0.046673
    139 H66        -7.9270    2.4080    4.6510 hc        1 MOL      0.046673
    140 N12        -6.3440   -1.9280    1.2560 n         1 MOL     -0.458721
    141 C43        -6.3510   -2.6550    0.0140 c3        1 MOL      0.057414
    142 C44        -5.0750   -2.5160   -0.8030 c         1 MOL      0.549709
    143 O21        -4.6720   -1.4080   -1.0890 o         1 MOL     -0.457536
    144 C45        -7.6580   -2.3430   -0.7240 c3        1 MOL     -0.403379
    145 C46        -8.9640   -2.8690   -0.1830 c3        1 MOL      0.187191
    146 C47       -10.0920   -2.5170   -1.2060 c3        1 MOL     -0.038407
    147 C48       -11.4090   -2.8520   -0.5290 c3        1 MOL      0.137589
    148 N13       -12.5900   -2.5180   -1.4260 n4        1 MOL     -0.208268
    149 H67        -6.2120   -2.4870    2.0940 hn        1 MOL      0.294028
    150 H68        -6.3580   -3.7150    0.2590 h1        1 MOL      0.055382
    151 H69        -7.4140   -2.7360   -1.7120 hc        1 MOL      0.113437
    152 H70        -7.7030   -1.2880   -0.9950 hc        1 MOL      0.113437
    153 H71        -9.0670   -2.4250    0.8040 hc        1 MOL      0.005663
    154 H72        -8.7760   -3.9410   -0.0720 hc        1 MOL      0.005663
    155 H73       -10.0300   -3.0940   -2.1280 hc        1 MOL      0.040045
    156 H74       -10.2420   -1.4480   -1.3530 hc        1 MOL      0.040045
    157 H75       -11.4710   -2.2960    0.4160 hx        1 MOL      0.020084
    158 H76       -11.3340   -3.9060   -0.2760 hx        1 MOL      0.020084
    159 H77       -12.6400   -1.5580   -1.7350 hn        1 MOL      0.207845
    160 H78       -12.6690   -3.1160   -2.2380 hn        1 MOL      0.207845
    161 H79       -13.4550   -2.6810   -0.9350 hn        1 MOL      0.207845
    162 N14        -4.4650   -3.5700   -1.3530 n         1 MOL     -0.505666
    163 C49        -3.1720   -3.4850   -2.0420 c3        1 MOL      0.276557
    164 C50        -2.0760   -2.8850   -1.1640 c         1 MOL      0.378377
    165 O22        -1.4500   -1.8810   -1.5830 o         1 MOL     -0.684453
    166 C51        -2.6860   -4.8290   -2.6630 c3        1 MOL      0.040717
    167 C52        -3.4510   -5.1570   -3.9050 c3        1 MOL     -0.075985
    168 C53        -3.0400   -6.4450   -4.5580 c         1 MOL      0.677142
    169 O23        -3.0890   -7.5760   -3.9740 o         1 MOL     -0.636616
    170 O24        -2.5520   -6.3240   -5.6660 o         1 MOL     -0.636616
    171 H80        -4.6750   -4.4970   -1.0210 hn        1 MOL      0.300899
    172 H81        -3.4060   -2.7710   -2.8310 h1        1 MOL      0.065241
    173 H82        -2.9280   -5.6630   -1.9990 hc        1 MOL      0.011334
    174 H83        -1.6010   -4.8310   -2.7700 hc        1 MOL      0.011334
    175 H84        -3.3950   -4.3230   -4.6060 hc        1 MOL     -0.035984
    176 H85        -4.5150   -5.2090   -3.6620 hc        1 MOL     -0.035984
    177 N15        -1.7210   -3.3580    0.0350 n         1 MOL     -0.250629
    178 C54        -2.0510   -4.7310    0.4840 c3        1 MOL     -0.043423
    179 H86        -3.1040   -4.9320    0.2920 h1        1 MOL      0.036820
    180 H87        -1.4390   -5.4490   -0.0630 h1        1 MOL      0.036820
    181 H88        -1.8520   -4.8210    1.5520 h1        1 MOL      0.036820
    182 H89        -1.1610   -2.7150    0.5650 hn        1 MOL      0.330162
    183 Ca1        -0.1790    0.6500   -1.2120 Ca        1 MOL      1.776022
    184 O25        -2.8760    0.5410   -0.5720 oh        1 MOL     -0.868312
    185 H90        -3.4480    1.0060    0.0340 ho        1 MOL      0.421648
    186 H91        -3.4530   -0.0710   -1.0190 ho        1 MOL      0.421648
    187 O26        -1.6890   -0.3700   -3.6610 oh        1 MOL     -0.868312
    188 H92        -1.4930   -1.2420   -3.3430 ho        1 MOL      0.421648
    189 H93        -1.0980   -0.2400   -4.4090 ho        1 MOL      0.421648
    190 O27         1.3570   -0.6490   -2.9030 oh        1 MOL     -0.868312
    191 H94         2.1370   -0.7940   -2.3590 ho        1 MOL      0.421648
    192 H95         1.5560   -1.0950   -3.7260 ho        1 MOL      0.421648
@<TRIPOS>BOND
     1    1    2 1   
     2    1    4 1   
     3    1    5 1   
     4    1    6 1   
     5    2    3 2   
     6    2    7 1   
     7    7    8 1   
     8    7   15 1   
     9    8    9 1   
    10    8   11 1   
    11    8   16 1   
    12    9   10 2   
    13    9   19 1   
    14   11   12 1   
    15   11   17 1   
    16   11   18 1   
    17   12   13 1   
    18   12   14 1   
    19   19   20 1   
    20   19   28 1   
    21   20   21 1   
    22   20   23 1   
    23   20   29 1   
    24   21   22 2   
    25   21   41 1   
    26   23   24 1   
    27   23   30 1   
    28   23   31 1   
    29   24   25 1   
    30   24   32 1   
    31   24   33 1   
    32   25   26 1   
    33   25   34 1   
    34   25   35 1   
    35   26   27 1   
    36   26   36 1   
    37   26   37 1   
    38   27   38 1   
    39   27   39 1   
    40   27   40 1   
    41   41   42 1   
    42   41   49 1   
    43   42   43 1   
    44   42   45 1   
    45   42   50 1   
    46   43   44 2   
    47   43   53 1   
    48   45   46 1   
    49   45   51 1   
    50   45   52 1   
    51   46   47 1   
    52   46   48 1   
    53   53   54 1   
    54   53   57 1   
    55   54   55 1   
    56   54   58 1   
    57   54   59 1   
    58   55   56 2   
    59   55   60 1   
    60   60   61 1   
    61   60   68 1   
    62   61   62 1   
    63   61   64 1   
    64   61   69 1   
    65   62   63 2   
    66   62   72 1   
    67   64   65 1   
    68   64   70 1   
    69   64   71 1   
    70   65   66 1   
    71   65   67 1   
    72   72   73 1   
    73   72   76 1   
    74   73   74 1   
    75   73   77 1   
    76   73   78 1   
    77   74   75 2   
    78   74   79 1   
    79   79   80 1   
    80   79   86 1   
    81   80   81 1   
    82   80   83 1   
    83   80   87 1   
    84   81   82 2   
    85   81   93 1   
    86   83   84 1   
    87   83   85 1   
    88   83   88 1   
    89   84   90 1   
    90   84   91 1   
    91   84   92 1   
    92   85   89 1   
    93   93   94 1   
    94   93  101 1   
    95   94   95 1   
    96   94   97 1   
    97   94  102 1   
    98   95   96 2   
    99   95  112 1   
   100   97   98 1   
   101   97   99 1   
   102   97  103 1   
   103   98  100 1   
   104   98  104 1   
   105   98  105 1   
   106   99  106 1   
   107   99  107 1   
   108   99  108 1   
   109  100  109 1   
   110  100  110 1   
   111  100  111 1   
   112  112  113 1   
   113  112  119 1   
   114  113  114 1   
   115  113  116 1   
   116  113  120 1   
   117  114  115 2   
   118  114  126 1   
   119  116  117 1   
   120  116  118 1   
   121  116  121 1   
   122  117  123 1   
   123  117  124 1   
   124  117  125 1   
   125  118  122 1   
   126  126  127 1   
   127  126  133 1   
   128  127  128 1   
   129  127  130 1   
   130  127  134 1   
   131  128  129 2   
   132  128  140 1   
   133  130  131 1   
   134  130  132 1   
   135  130  135 1   
   136  131  137 1   
   137  131  138 1   
   138  131  139 1   
   139  132  136 1   
   140  140  141 1   
   141  140  149 1   
   142  141  142 1   
   143  141  144 1   
   144  141  150 1   
   145  142  143 2   
   146  142  162 1   
   147  144  145 1   
   148  144  151 1   
   149  144  152 1   
   150  145  146 1   
   151  145  153 1   
   152  145  154 1   
   153  146  147 1   
   154  146  155 1   
   155  146  156 1   
   156  147  148 1   
   157  147  157 1   
   158  147  158 1   
   159  148  159 1   
   160  148  160 1   
   161  148  161 1   
   162  162  163 1   
   163  162  171 1   
   164  163  164 1   
   165  163  166 1   
   166  163  172 1   
   167  164  165 2   
   168  164  177 1   
   169  166  167 1   
   170  166  173 1   
   171  166  174 1   
   172  167  168 1   
   173  167  175 1   
   174  167  176 1   
   175  168  169 1   
   176  168  170 1   
   177  177  178 1   
   178  177  182 1   
   179  178  179 1   
   180  178  180 1   
   181  178  181 1   
   182  184  185 1   
   183  184  186 1   
   184  187  188 1   
   185  187  189 1   
   186  190  191 1   
   187  190  192 1   
@<TRIPOS>SUBSTRUCTURE
     1 MOL         1 TEMP              0 ****  ****    0 ROOT
