@<TRIPOS>MOLECULE
MOL
  189   185     1     0     0
SMALL
resp


@<TRIPOS>ATOM
      1 C1          9.9580    1.3020    1.0820 c3        1 MOL     -0.617794
      2 C2          8.6470    0.8370    0.4350 c         1 MOL      0.859250
      3 O1          7.6100    0.7830    1.1010 o         1 MOL     -0.706188
      4 H1          9.7340    1.9410    1.9370 hc        1 MOL      0.156519
      5 H2         10.5250    0.4340    1.4170 hc        1 MOL      0.156519
      6 H3         10.5440    1.8620    0.3540 hc        1 MOL      0.156519
      7 N1          8.6930    0.4300   -0.8410 n         1 MOL     -0.679986
      8 C3          7.5850    0.0540   -1.7260 c3        1 MOL      0.014067
      9 C4          6.8650   -1.2880   -1.4210 c         1 MOL      0.470353
     10 O2          6.3210   -1.9600   -2.3070 o         1 MOL     -0.455193
     11 C5          8.0530    0.1010   -3.1700 c3        1 MOL     -0.194609
     12 C6          9.3050   -0.7180   -3.4800 c         1 MOL      0.725434
     13 O3          9.6950   -0.5710   -4.6730 o         1 MOL     -0.658550
     14 O4         10.0510   -1.3690   -2.6980 o         1 MOL     -0.658550
     15 H4          9.6220    0.5470   -1.2190 hn        1 MOL      0.333753
     16 H5          6.7800    0.7830   -1.7420 h1        1 MOL      0.119549
     17 H6          8.3440    1.0870   -3.5310 hc        1 MOL      0.082098
     18 H7          7.2870   -0.1930   -3.8860 hc        1 MOL      0.082098
     19 N2          6.8950   -1.7550   -0.1680 n         1 MOL     -0.388875
     20 C7          6.3890   -3.0810    0.3010 c3        1 MOL      0.000238
     21 C8          4.8760   -3.3310    0.0970 c         1 MOL      0.530646
     22 O5          4.5820   -4.4710   -0.2730 o         1 MOL     -0.552658
     23 C9          6.7720   -3.3860    1.7840 c3        1 MOL     -0.121344
     24 C10         8.3030   -3.2790    1.9470 c3        1 MOL      0.094833
     25 C11         8.6650   -3.4230    3.4420 c3        1 MOL     -0.066369
     26 C12        10.1830   -3.3720    3.5920 c3        1 MOL      0.090791
     27 N3         10.5320   -3.2950    5.0330 n4        1 MOL     -0.225393
     28 H8          7.1340   -1.1510    0.6080 hn        1 MOL      0.334922
     29 H9          6.8860   -3.8020   -0.3520 h1        1 MOL      0.125947
     30 H10         6.4260   -4.3700    2.0840 hc        1 MOL      0.052001
     31 H11         6.4190   -2.5660    2.4070 hc        1 MOL      0.052001
     32 H12         8.6400   -2.2860    1.6530 hc        1 MOL     -0.005868
     33 H13         8.8500   -4.0040    1.3470 hc        1 MOL     -0.005868
     34 H14         8.2460   -4.3840    3.7430 hc        1 MOL      0.027034
     35 H15         8.2020   -2.6620    4.0810 hc        1 MOL      0.027034
     36 H16        10.6010   -2.5200    3.0550 hx        1 MOL      0.063976
     37 H17        10.6470   -4.2710    3.1940 hx        1 MOL      0.063976
     38 H18        11.5100   -3.4930    5.1490 hn        1 MOL      0.230582
     39 H19        10.2340   -2.4220    5.4580 hn        1 MOL      0.230582
     40 H20        10.0840   -4.0320    5.5480 hn        1 MOL      0.230582
     41 N4          3.9250   -2.4450    0.3610 n         1 MOL     -0.428834
     42 C13         4.0710   -1.1240    0.9240 c3        1 MOL      0.093295
     43 C14         3.8840   -0.0340   -0.1510 c         1 MOL      0.099003
     44 O6          3.4540   -0.3390   -1.2810 o         1 MOL     -0.298892
     45 C15         2.9070   -0.9650    2.0110 c3        1 MOL     -0.305533
     46 C16         1.5810   -1.3870    1.2970 c         1 MOL      0.687645
     47 O7          0.9840   -0.6270    0.4780 o         1 MOL     -0.644333
     48 O8          1.1850   -2.5310    1.5650 o         1 MOL     -0.644333
     49 H21         2.9530   -2.7100    0.2680 hn        1 MOL      0.351724
     50 H22         5.0540   -0.8570    1.3160 h1        1 MOL      0.084373
     51 H23         2.8410    0.1010    2.2370 hc        1 MOL      0.060628
     52 H24         3.1240   -1.5080    2.9260 hc        1 MOL      0.060628
     53 N5          4.1130    1.1980    0.2880 n         1 MOL     -0.183685
     54 C17         3.9330    2.4000   -0.5430 c3        1 MOL     -0.276052
     55 C18         2.5220    2.7160   -1.2000 c         1 MOL      0.513977
     56 O9          1.5210    2.0580   -0.8710 o         1 MOL     -0.450673
     57 H25         4.4170    1.1890    1.2550 hn        1 MOL      0.283696
     58 H26         4.6110    2.3040   -1.3980 h1        1 MOL      0.134868
     59 H27         4.3090    3.2900   -0.0490 h1        1 MOL      0.134868
     60 N6          2.4720    3.7870   -2.0230 n         1 MOL     -0.370507
     61 C19         1.2640    4.3260   -2.6480 c3        1 MOL      0.085446
     62 C20         1.4470    5.8480   -2.7810 c         1 MOL      0.465285
     63 O10         2.5920    6.2690   -2.5980 o         1 MOL     -0.524116
     64 C21         1.0020    3.7030   -4.0700 c3        1 MOL     -0.116009
     65 C22         0.8180    2.1580   -3.9580 c         1 MOL      0.597626
     66 O11        -0.1580    1.8870   -3.2130 o         1 MOL     -0.650343
     67 O12         1.6660    1.3600   -4.3620 o         1 MOL     -0.650343
     68 H28         3.2960    4.3360   -2.2110 hn        1 MOL      0.274616
     69 H29         0.3830    4.1650   -2.0300 h1        1 MOL      0.063425
     70 H30         1.7840    3.9770   -4.7720 hc        1 MOL      0.027171
     71 H31         0.0960    4.1600   -4.4850 hc        1 MOL      0.027171
     72 N7          0.3920    6.6970   -2.9410 n         1 MOL     -0.432613
     73 C23        -1.0520    6.5150   -2.8880 c3        1 MOL      0.013921
     74 C24        -1.5070    6.1570   -1.4980 c         1 MOL      0.581912
     75 O13        -0.9070    6.4880   -0.4910 o         1 MOL     -0.493203
     76 H32         0.7120    7.6130   -3.2400 hn        1 MOL      0.302363
     77 H33        -1.3860    5.6880   -3.5170 h1        1 MOL      0.057389
     78 H34        -1.5350    7.3350   -3.4170 h1        1 MOL      0.057389
     79 N8         -2.5770    5.2880   -1.3970 n         1 MOL     -0.673612
     80 C25        -2.9570    4.7790   -0.0800 c3        1 MOL      0.097165
     81 C26        -1.9360    3.7740    0.5050 c         1 MOL      0.855128
     82 O14        -1.4210    2.9720   -0.3270 o         1 MOL     -0.775195
     83 C27        -4.3580    4.0060   -0.0370 c3        1 MOL      0.515836
     84 C28        -5.5310    4.9520   -0.1400 c3        1 MOL     -0.335095
     85 O15        -4.6230    3.4230    1.2720 oh        1 MOL     -0.737298
     86 H35        -3.0450    4.9210   -2.2220 hn        1 MOL      0.327588
     87 H36        -2.9920    5.6640    0.5630 h1        1 MOL      0.055971
     88 H37        -4.4340    3.1990   -0.7690 h1        1 MOL     -0.031558
     89 H38        -5.2130    2.6680    1.1740 ho        1 MOL      0.449310
     90 H39        -5.6220    5.2710   -1.1770 hc        1 MOL      0.070831
     91 H40        -6.4020    4.3290    0.0550 hc        1 MOL      0.070831
     92 H41        -5.4920    5.6910    0.6580 hc        1 MOL      0.070831
     93 N9         -1.7770    3.7480    1.7880 n         1 MOL     -0.770323
     94 C29        -1.0930    2.8170    2.6500 c3        1 MOL      0.221400
     95 C30        -1.7210    1.4250    2.6370 c         1 MOL      0.548680
     96 O16        -1.5340    0.5960    1.7550 o         1 MOL     -0.572672
     97 C31         0.4140    2.7080    2.4800 c3        1 MOL      0.176712
     98 C32         1.1430    4.0200    2.1490 c3        1 MOL      0.003052
     99 C33         1.1140    2.0090    3.6370 c3        1 MOL     -0.282258
    100 C34         1.2000    5.0560    3.2880 c3        1 MOL     -0.236286
    101 H42        -2.4350    4.3420    2.2650 hn        1 MOL      0.332991
    102 H43        -1.1790    3.1860    3.6760 h1        1 MOL      0.052572
    103 H44         0.4720    2.1520    1.5470 hc        1 MOL     -0.059306
    104 H45         0.6100    4.4640    1.3150 hc        1 MOL      0.044545
    105 H46         2.1430    3.8850    1.7460 hc        1 MOL      0.044545
    106 H47         0.6990    1.0070    3.7980 hc        1 MOL      0.061755
    107 H48         2.1500    1.9620    3.3240 hc        1 MOL      0.061755
    108 H49         0.9330    2.6520    4.5010 hc        1 MOL      0.061755
    109 H50         1.6350    5.9750    2.9050 hc        1 MOL      0.055672
    110 H51         0.2340    5.3360    3.7010 hc        1 MOL      0.055672
    111 H52         1.8570    4.8530    4.1330 hc        1 MOL      0.055672
    112 N10        -2.3940    1.1020    3.7050 n         1 MOL     -0.439711
    113 C35        -2.7390   -0.2610    4.2220 c3        1 MOL     -0.287504
    114 C36        -3.9930   -0.9020    3.6590 c         1 MOL      0.599603
    115 O17        -4.4460   -1.9280    4.2230 o         1 MOL     -0.576522
    116 C37        -2.4420   -0.4120    5.7200 c3        1 MOL      0.479657
    117 C38        -3.3810    0.4720    6.5250 c3        1 MOL     -0.261154
    118 O18        -1.1770    0.1330    6.0340 oh        1 MOL     -0.606206
    119 H53        -2.3950    1.8910    4.3330 hn        1 MOL      0.267612
    120 H54        -2.0050   -0.9180    3.7400 h1        1 MOL      0.164515
    121 H55        -2.3920   -1.4050    6.1700 h1        1 MOL      0.010363
    122 H56        -0.5700   -0.5800    5.8360 ho        1 MOL      0.378771
    123 H57        -3.3010    1.5340    6.2800 hc        1 MOL      0.071314
    124 H58        -4.3890    0.0800    6.3790 hc        1 MOL      0.071314
    125 H59        -3.1360    0.3400    7.5780 hc        1 MOL      0.071314
    126 N11        -4.5290   -0.4150    2.5600 n         1 MOL     -0.278626
    127 C39        -5.8670   -0.7980    2.0060 c3        1 MOL      0.022245
    128 C40        -5.8260   -1.4330    0.6000 c         1 MOL      0.365897
    129 O19        -5.0530   -0.9100   -0.2220 o         1 MOL     -0.424844
    130 C41        -6.9100    0.3380    2.0460 c3        1 MOL      0.379934
    131 C42        -7.0470    0.7520    3.4780 c3        1 MOL     -0.586555
    132 O20        -6.4970    1.5050    1.2730 oh        1 MOL     -0.598794
    133 H60        -4.0680    0.3850    2.1500 hn        1 MOL      0.227069
    134 H61        -6.2970   -1.5960    2.6180 h1        1 MOL      0.055148
    135 H62        -7.9060   -0.0260    1.8140 h1        1 MOL      0.012721
    136 H63        -6.8790    1.3130    0.4170 ho        1 MOL      0.359020
    137 H64        -7.2000   -0.1850    4.0160 hc        1 MOL      0.168438
    138 H65        -6.1420    1.2720    3.7800 hc        1 MOL      0.168438
    139 H66        -7.9420    1.3600    3.5600 hc        1 MOL      0.168438
    140 N12        -6.6450   -2.4370    0.3130 n         1 MOL     -0.430502
    141 C43        -6.7000   -3.0750   -1.0650 c3        1 MOL      0.091536
    142 C44        -5.3950   -3.1830   -1.8030 c         1 MOL      0.567491
    143 O21        -5.3260   -2.7550   -2.9400 o         1 MOL     -0.538161
    144 C45        -7.8540   -2.3710   -1.7580 c3        1 MOL     -0.564056
    145 C46        -9.1470   -2.4320   -0.9540 c3        1 MOL      0.229369
    146 C47       -10.3210   -1.9560   -1.8720 c3        1 MOL     -0.037239
    147 C48       -11.4930   -1.4590   -0.9590 c3        1 MOL      0.055087
    148 N13       -12.4930   -0.8360   -1.7710 n4        1 MOL     -0.129525
    149 H67        -7.2060   -2.8580    1.0450 hn        1 MOL      0.288884
    150 H68        -7.0600   -4.0770   -0.8290 h1        1 MOL      0.063511
    151 H69        -8.0520   -2.9320   -2.6750 hc        1 MOL      0.182522
    152 H70        -7.5620   -1.3580   -2.0210 hc        1 MOL      0.182522
    153 H71        -9.0710   -1.8210   -0.0560 hc        1 MOL     -0.004690
    154 H72        -9.3290   -3.4400   -0.5840 hc        1 MOL     -0.004690
    155 H73       -10.5830   -2.7670   -2.5540 hc        1 MOL      0.035080
    156 H74       -10.0060   -1.1160   -2.4790 hc        1 MOL      0.035080
    157 H75       -11.0750   -0.5960   -0.4240 hx        1 MOL      0.029768
    158 H76       -11.8990   -2.2160   -0.2980 hx        1 MOL      0.029768
    159 H77       -13.2570   -0.4930   -1.2120 hn        1 MOL      0.182852
    160 H78       -12.0870   -0.1600   -2.4070 hn        1 MOL      0.182852
    161 H79       -12.9950   -1.4860   -2.3510 hn        1 MOL      0.182852
    162 N14        -4.2930   -3.4980   -1.1400 n         1 MOL     -0.431350
    163 C49        -3.0200   -3.6030   -1.7170 c3        1 MOL      0.253949
    164 C50        -1.9990   -2.8090   -0.8940 c         1 MOL      0.529030
    165 O22        -1.6210   -1.7220   -1.3320 o         1 MOL     -0.714709
    166 C51        -2.7130   -5.1170   -1.9900 c3        1 MOL     -0.013610
    167 C52        -3.5390   -5.6860   -3.1640 c3        1 MOL     -0.200611
    168 C53        -3.2250   -7.1310   -3.3690 c         1 MOL      0.651536
    169 O23        -2.1830   -7.4790   -4.0140 o         1 MOL     -0.591831
    170 O24        -4.0600   -8.0840   -2.9990 o         1 MOL     -0.591831
    171 H80        -4.4300   -3.7700   -0.1780 hn        1 MOL      0.241719
    172 H81        -3.0340   -3.1450   -2.6990 h1        1 MOL      0.080900
    173 H82        -2.9020   -5.7950   -1.1610 hc        1 MOL      0.027958
    174 H83        -1.6510   -5.2540   -2.2040 hc        1 MOL      0.027958
    175 H84        -3.3640   -5.0780   -4.0540 hc        1 MOL      0.041765
    176 H85        -4.5730   -5.5960   -2.8250 hc        1 MOL      0.041765
    177 N15        -1.3760   -3.2940    0.2110 n         1 MOL     -0.373735
    178 C54        -1.7980   -4.4160    1.0590 c3        1 MOL     -0.043803
    179 H86        -0.9400   -5.0550    1.2690 h1        1 MOL      0.047824
    180 H87        -2.2030   -4.0330    1.9950 h1        1 MOL      0.047824
    181 H88        -2.5630   -4.9950    0.5420 h1        1 MOL      0.047824
    182 H89        -0.6030   -2.7240    0.5440 hn        1 MOL      0.311663
    183 Ca1        -0.6910    0.6160   -0.9250 Ca        1 MOL      1.769161
    184 O25        -3.3020    0.8220   -1.2590 oh        1 MOL     -0.903282
    185 H90        -3.5880    0.9650   -2.1600 ho        1 MOL      0.413822
    186 H91        -4.0110    0.3190   -0.8600 ho        1 MOL      0.413822
    187 O26         1.0850   -0.4980   -2.4380 oh        1 MOL     -0.903282
    188 H92         1.9900   -0.5170   -2.1380 ho        1 MOL      0.413822
    189 H93         1.1050   -0.0100   -3.2560 ho        1 MOL      0.413822
@<TRIPOS>BOND
     1    1    2 1   
     2    1    4 1   
     3    1    5 1   
     4    1    6 1   
     5    2    3 2   
     6    2    7 1   
     7    7    8 1   
     8    7   15 1   
     9    8    9 1   
    10    8   11 1   
    11    8   16 1   
    12    9   10 2   
    13    9   19 1   
    14   11   12 1   
    15   11   17 1   
    16   11   18 1   
    17   12   13 1   
    18   12   14 1   
    19   19   20 1   
    20   19   28 1   
    21   20   21 1   
    22   20   23 1   
    23   20   29 1   
    24   21   22 2   
    25   21   41 1   
    26   23   24 1   
    27   23   30 1   
    28   23   31 1   
    29   24   25 1   
    30   24   32 1   
    31   24   33 1   
    32   25   26 1   
    33   25   34 1   
    34   25   35 1   
    35   26   27 1   
    36   26   36 1   
    37   26   37 1   
    38   27   38 1   
    39   27   39 1   
    40   27   40 1   
    41   41   42 1   
    42   41   49 1   
    43   42   43 1   
    44   42   45 1   
    45   42   50 1   
    46   43   44 2   
    47   43   53 1   
    48   45   46 1   
    49   45   51 1   
    50   45   52 1   
    51   46   47 1   
    52   46   48 1   
    53   53   54 1   
    54   53   57 1   
    55   54   55 1   
    56   54   58 1   
    57   54   59 1   
    58   55   56 2   
    59   55   60 1   
    60   60   61 1   
    61   60   68 1   
    62   61   62 1   
    63   61   64 1   
    64   61   69 1   
    65   62   63 2   
    66   62   72 1   
    67   64   65 1   
    68   64   70 1   
    69   64   71 1   
    70   65   66 1   
    71   65   67 1   
    72   72   73 1   
    73   72   76 1   
    74   73   74 1   
    75   73   77 1   
    76   73   78 1   
    77   74   75 2   
    78   74   79 1   
    79   79   80 1   
    80   79   86 1   
    81   80   81 1   
    82   80   83 1   
    83   80   87 1   
    84   81   82 2   
    85   81   93 1   
    86   83   84 1   
    87   83   85 1   
    88   83   88 1   
    89   84   90 1   
    90   84   91 1   
    91   84   92 1   
    92   85   89 1   
    93   93   94 1   
    94   93  101 1   
    95   94   95 1   
    96   94   97 1   
    97   94  102 1   
    98   95   96 2   
    99   95  112 1   
   100   97   98 1   
   101   97   99 1   
   102   97  103 1   
   103   98  100 1   
   104   98  104 1   
   105   98  105 1   
   106   99  106 1   
   107   99  107 1   
   108   99  108 1   
   109  100  109 1   
   110  100  110 1   
   111  100  111 1   
   112  112  113 1   
   113  112  119 1   
   114  113  114 1   
   115  113  116 1   
   116  113  120 1   
   117  114  115 2   
   118  114  126 1   
   119  116  117 1   
   120  116  118 1   
   121  116  121 1   
   122  117  123 1   
   123  117  124 1   
   124  117  125 1   
   125  118  122 1   
   126  126  127 1   
   127  126  133 1   
   128  127  128 1   
   129  127  130 1   
   130  127  134 1   
   131  128  129 2   
   132  128  140 1   
   133  130  131 1   
   134  130  132 1   
   135  130  135 1   
   136  131  137 1   
   137  131  138 1   
   138  131  139 1   
   139  132  136 1   
   140  140  141 1   
   141  140  149 1   
   142  141  142 1   
   143  141  144 1   
   144  141  150 1   
   145  142  143 2   
   146  142  162 1   
   147  144  145 1   
   148  144  151 1   
   149  144  152 1   
   150  145  146 1   
   151  145  153 1   
   152  145  154 1   
   153  146  147 1   
   154  146  155 1   
   155  146  156 1   
   156  147  148 1   
   157  147  157 1   
   158  147  158 1   
   159  148  159 1   
   160  148  160 1   
   161  148  161 1   
   162  162  163 1   
   163  162  171 1   
   164  163  164 1   
   165  163  166 1   
   166  163  172 1   
   167  164  165 2   
   168  164  177 1   
   169  166  167 1   
   170  166  173 1   
   171  166  174 1   
   172  167  168 1   
   173  167  175 1   
   174  167  176 1   
   175  168  169 1   
   176  168  170 1   
   177  177  178 1   
   178  177  182 1   
   179  178  179 1   
   180  178  180 1   
   181  178  181 1   
   182  184  185 1   
   183  184  186 1   
   184  187  188 1   
   185  187  189 1   
@<TRIPOS>SUBSTRUCTURE
     1 MOL         1 TEMP              0 ****  ****    0 ROOT
