@<TRIPOS>MOLECULE
MOL
  185   180     1     0     0
SMALL
resp


@<TRIPOS>ATOM
      1 C1         -5.1580    1.2990   -3.9250 c3        1 MOL     -0.324867
      2 C2         -6.0140    1.3050   -2.5950 c         1 MOL      0.587631
      3 O1         -5.4650    0.8620   -1.5570 o         1 MOL     -0.509482
      4 H1         -5.8150    1.4590   -4.7800 hc        1 MOL      0.078864
      5 H2         -4.4170    2.0980   -3.8840 hc        1 MOL      0.078864
      6 H3         -4.6530    0.3390   -4.0290 hc        1 MOL      0.078864
      7 N1         -7.2980    1.6070   -2.7170 n         1 MOL     -0.604115
      8 C3         -8.2670    1.7460   -1.6320 c3        1 MOL      0.247004
      9 C4         -8.3820    0.4750   -0.7060 c         1 MOL      0.309924
     10 O2         -8.9260    0.5690    0.3890 o         1 MOL     -0.454318
     11 C5         -7.9630    3.0380   -0.8860 c3        1 MOL     -0.349399
     12 C6         -8.9820    3.4970    0.1210 c         1 MOL      0.747468
     13 O3        -10.2080    3.4310   -0.1780 o         1 MOL     -0.702773
     14 O4         -8.6380    4.1680    1.1030 o         1 MOL     -0.702773
     15 H4         -7.6400    1.8120   -3.6430 hn        1 MOL      0.351063
     16 H5         -9.2550    1.8360   -2.0680 h1        1 MOL      0.017723
     17 H6         -7.7730    3.8800   -1.5520 hc        1 MOL      0.113022
     18 H7         -7.0580    2.8350   -0.3080 hc        1 MOL      0.113022
     19 N2         -7.8990   -0.7460   -1.1580 n         1 MOL     -0.227759
     20 C7         -7.8800   -1.9810   -0.3540 c3        1 MOL      0.148548
     21 C8         -6.5000   -2.5650   -0.2080 c         1 MOL      0.476763
     22 O5         -6.3480   -3.6750    0.3020 o         1 MOL     -0.531688
     23 C9         -8.8810   -2.8630   -1.0730 c3        1 MOL     -0.104934
     24 C10       -10.4050   -2.4540   -0.9080 c3        1 MOL     -0.059648
     25 C11       -10.7920   -2.5010    0.5750 c3        1 MOL     -0.100493
     26 C12       -12.2770   -2.1170    0.5530 c3        1 MOL      0.140334
     27 N3        -12.7820   -1.8950    1.8620 n4        1 MOL     -0.462192
     28 H8         -7.6480   -0.7470   -2.1320 hn        1 MOL      0.182356
     29 H9         -8.2600   -1.7540    0.6360 h1        1 MOL      0.076164
     30 H10        -8.7770   -3.8580   -0.6340 hc        1 MOL      0.029608
     31 H11        -8.6770   -2.8380   -2.1480 hc        1 MOL      0.029608
     32 H12       -10.8950   -3.2650   -1.4570 hc        1 MOL      0.035749
     33 H13       -10.6830   -1.4740   -1.2860 hc        1 MOL      0.035749
     34 H14       -10.2400   -1.7170    1.0910 hc        1 MOL      0.068979
     35 H15       -10.5610   -3.4620    1.0140 hc        1 MOL      0.068979
     36 H16       -12.8540   -2.8210   -0.0350 hx        1 MOL      0.061122
     37 H17       -12.3890   -1.2240   -0.0670 hx        1 MOL      0.061122
     38 H18       -13.6000   -1.3020    1.8820 hn        1 MOL      0.335033
     39 H19       -12.9890   -2.7710    2.3210 hn        1 MOL      0.335033
     40 H20       -12.1480   -1.3290    2.4160 hn        1 MOL      0.335033
     41 N4         -5.4660   -1.8140   -0.5980 n         1 MOL     -0.443927
     42 C13        -4.0790   -2.2310   -0.5770 c3        1 MOL      0.041349
     43 C14        -3.7180   -2.7270    0.7770 c         1 MOL      0.459004
     44 O6         -4.2070   -2.1450    1.7970 o         1 MOL     -0.490086
     45 C15        -3.1630   -1.1380   -0.9890 c3        1 MOL     -0.183394
     46 C16        -1.6500   -1.3270   -0.9300 c         1 MOL      0.382999
     47 O7         -0.9690   -1.2940   -1.9490 o         1 MOL     -0.639328
     48 O8         -1.1180   -1.4490    0.2300 o         1 MOL     -0.639328
     49 H21        -5.6780   -0.9690   -1.0980 hn        1 MOL      0.256291
     50 H22        -3.9460   -3.0710   -1.2640 h1        1 MOL      0.032659
     51 H23        -3.2710   -0.2730   -0.3370 hc        1 MOL      0.169560
     52 H24        -3.4750   -0.8450   -1.9850 hc        1 MOL      0.169560
     53 N5         -2.8660   -3.7510    0.9030 n         1 MOL     -0.264419
     54 C17        -2.5980   -4.5290    2.0550 c3        1 MOL     -0.094196
     55 C18        -1.5430   -3.9910    3.0710 c         1 MOL      0.655761
     56 O9         -1.4370   -4.6950    4.1110 o         1 MOL     -0.587530
     57 H25        -2.3270   -4.0090    0.0830 hn        1 MOL      0.215156
     58 H26        -2.3370   -5.4950    1.6190 h1        1 MOL      0.084310
     59 H27        -3.4770   -4.7630    2.6480 h1        1 MOL      0.084310
     60 N6         -0.9100   -2.7830    2.9370 n         1 MOL     -0.561357
     61 C19        -0.4290   -2.0160    4.1040 c3        1 MOL      0.098147
     62 C20        -0.8180   -0.4820    3.9900 c         1 MOL      0.311354
     63 O10        -0.2320    0.3650    4.6210 o         1 MOL     -0.484232
     64 C21         1.1100   -2.2440    4.0970 c3        1 MOL     -0.406233
     65 C22         1.7400   -1.6330    2.9000 c         1 MOL      0.751897
     66 N7          2.6380   -0.6770    3.0300 n         1 MOL     -0.730224
     67 O11         1.5910   -2.0510    1.7670 o         1 MOL     -0.639566
     68 H28        -0.9130   -2.3620    2.0250 hn        1 MOL      0.420506
     69 H29        -0.8360   -2.4650    5.0030 h1        1 MOL      0.127230
     70 H30         1.2180   -3.3290    4.0840 hc        1 MOL      0.142847
     71 H31         1.5100   -1.8330    5.0250 hc        1 MOL      0.142847
     72 H32         2.6240   -0.1780    3.9070 hn        1 MOL      0.321493
     73 H33         3.0110   -0.0770    2.3150 hn        1 MOL      0.321493
     74 N8         -1.8700   -0.1660    3.1800 n         1 MOL      0.034592
     75 C23        -2.3920    1.2160    3.0590 c3        1 MOL     -0.415782
     76 C24        -1.6170    2.1460    2.1140 c         1 MOL      0.612787
     77 O12        -1.8910    3.3590    2.2310 o         1 MOL     -0.524617
     78 H34        -2.4420   -0.9110    2.8160 hn        1 MOL      0.054920
     79 H35        -2.3500    1.6520    4.0530 h1        1 MOL      0.185149
     80 H36        -3.3590    1.0660    2.5770 h1        1 MOL      0.185149
     81 N9         -0.7340    1.7170    1.2080 n         1 MOL     -0.389658
     82 C25        -0.1400    2.5210    0.1550 c3        1 MOL     -0.000048
     83 C26         1.2320    1.8950   -0.2490 c         1 MOL      0.458895
     84 O13         1.4620    0.7090   -0.2650 o         1 MOL     -0.419060
     85 C27        -0.9750    2.4890   -1.1530 c3        1 MOL     -0.039934
     86 C28        -2.0770    3.5250   -1.1850 ca        1 MOL      0.182829
     87 C29        -1.9770    4.5610   -2.1610 ca        1 MOL     -0.322556
     88 C30        -3.2980    3.3470   -0.4860 ca        1 MOL     -0.322556
     89 C31        -3.0230    5.4740   -2.3660 ca        1 MOL     -0.113859
     90 C32        -4.2480    4.3700   -0.5890 ca        1 MOL     -0.113859
     91 C33        -4.1520    5.3840   -1.5190 ca        1 MOL      0.300720
     92 O14        -5.2020    6.2760   -1.6600 oh        1 MOL     -0.599189
     93 H37        -0.5980    0.7240    1.3220 hn        1 MOL      0.203209
     94 H38         0.1000    3.5430    0.4440 h1        1 MOL      0.055846
     95 H39        -1.3940    1.4820   -1.2180 hc        1 MOL      0.035626
     96 H40        -0.3370    2.6610   -2.0230 hc        1 MOL      0.035626
     97 H41        -1.0970    4.6240   -2.7740 ha        1 MOL      0.164950
     98 H42        -3.6060    2.6130    0.2410 ha        1 MOL      0.164950
     99 H43        -2.9560    6.2800   -3.0780 ha        1 MOL      0.110950
    100 H44        -5.1350    4.3760    0.0310 ha        1 MOL      0.110950
    101 H45        -6.0100    6.1220   -1.1620 ho        1 MOL      0.446703
    102 N10         2.1790    2.8100   -0.5210 n         1 MOL     -0.383200
    103 C34         3.5770    2.4860   -0.9150 c3        1 MOL     -0.019739
    104 C35         4.4280    2.1840    0.3580 c         1 MOL      0.296718
    105 O15         4.8860    1.0910    0.5280 o         1 MOL     -0.411536
    106 C36         4.2190    3.7050   -1.6570 c3        1 MOL      0.171136
    107 C37         3.3960    4.3990   -2.8890 c3        1 MOL     -0.216110
    108 C38         5.6220    3.1750   -2.1410 c3        1 MOL     -0.638131
    109 C39         3.1090    3.4000   -4.0370 c3        1 MOL     -0.098930
    110 H46         1.9300    3.7500   -0.2540 hn        1 MOL      0.276026
    111 H47         3.5520    1.6780   -1.6390 h1        1 MOL      0.058015
    112 H48         4.4530    4.5320   -0.9840 hc        1 MOL     -0.022102
    113 H49         4.0710    5.1150   -3.3700 hc        1 MOL      0.081526
    114 H50         2.4530    4.8460   -2.5640 hc        1 MOL      0.081526
    115 H51         6.0030    4.1240   -2.5210 hc        1 MOL      0.185350
    116 H52         6.2470    2.6680   -1.4090 hc        1 MOL      0.185350
    117 H53         5.4440    2.4440   -2.9310 hc        1 MOL      0.185350
    118 H54         2.4880    3.7980   -4.8400 hc        1 MOL      0.046821
    119 H55         4.0800    3.1300   -4.4700 hc        1 MOL      0.046821
    120 H56         2.6460    2.4560   -3.7270 hc        1 MOL      0.046821
    121 N11         4.5170    3.1850    1.2560 n         1 MOL     -0.114320
    122 C40         5.2310    3.1470    2.5460 c3        1 MOL     -0.088439
    123 C41         6.7370    2.7340    2.4220 c         1 MOL      0.343347
    124 O16         7.2210    1.9590    3.2560 o         1 MOL     -0.448057
    125 C42         5.1030    4.5050    3.2880 c3        1 MOL      0.205260
    126 O17         3.6850    4.6740    3.4210 oh        1 MOL     -0.594524
    127 H57         3.9940    4.0480    1.1660 hn        1 MOL      0.191527
    128 H58         4.7000    2.3490    3.0640 h1        1 MOL      0.152999
    129 H59         5.5090    5.3230    2.6970 h1        1 MOL      0.031902
    130 H60         5.5670    4.5150    4.2700 h1        1 MOL      0.031902
    131 H61         3.5980    5.6040    3.6790 ho        1 MOL      0.407989
    132 N12         7.3770    3.2600    1.3910 n         1 MOL     -0.348875
    133 C43         8.7870    2.9140    1.0770 c3        1 MOL      0.207922
    134 C44         8.9860    1.3640    1.0850 c         1 MOL      0.530212
    135 O18         9.9780    0.8840    1.6640 o         1 MOL     -0.502422
    136 C45         9.6930    3.7050    1.9900 c3        1 MOL     -0.415950
    137 H62         6.9190    3.9090    0.7620 hn        1 MOL      0.250612
    138 H63         9.0400    3.1310    0.0430 h1        1 MOL      0.031987
    139 H64        10.7200    3.4070    1.8130 hc        1 MOL      0.125037
    140 H65         9.5650    4.7840    1.9120 hc        1 MOL      0.125037
    141 H66         9.5460    3.3790    3.0160 hc        1 MOL      0.125037
    142 N13         8.0220    0.5530    0.5390 n         1 MOL     -0.623681
    143 C46         7.9990   -0.9190    0.6350 c3        1 MOL      0.417980
    144 C47         7.3740   -1.6530   -0.5700 c         1 MOL      0.393049
    145 O19         6.6360   -1.0590   -1.2650 o         1 MOL     -0.440101
    146 C48         7.2550   -1.3110    1.8770 c3        1 MOL     -0.394571
    147 H67         7.1160    0.9650    0.3520 hn        1 MOL      0.248765
    148 H68         8.9900   -1.3650    0.6950 h1        1 MOL     -0.018959
    149 H69         7.3140   -2.3910    1.9940 hc        1 MOL      0.113392
    150 H70         7.7010   -0.8040    2.7410 hc        1 MOL      0.113392
    151 H71         6.1990   -1.0480    1.7660 hc        1 MOL      0.113392
    152 N14         7.7030   -2.9070   -0.8530 n         1 MOL     -0.455889
    153 C49         7.2260   -3.6530   -2.0830 c3        1 MOL     -0.028424
    154 C50         7.7450   -3.0200   -3.3730 c         1 MOL      0.447849
    155 O20         7.0270   -2.8140   -4.3020 o         1 MOL     -0.485308
    156 C51         5.7720   -4.1210   -1.9430 c3        1 MOL      0.377709
    157 C52         5.2220   -4.6630   -0.6740 c3        1 MOL     -0.115722
    158 C53         3.6970   -4.8170   -0.7560 c         1 MOL      0.612841
    159 O21         3.2280   -5.9520   -0.9820 o         1 MOL     -0.646193
    160 O22         2.9620   -3.8090   -0.8140 o         1 MOL     -0.646193
    161 H72         8.1120   -3.3390   -0.0440 hn        1 MOL      0.288826
    162 H73         7.7520   -4.5980   -1.9320 h1        1 MOL      0.046844
    163 H74         5.6330   -4.8010   -2.7860 hc        1 MOL     -0.105360
    164 H75         5.1520   -3.2450   -2.1140 hc        1 MOL     -0.105360
    165 H76         5.4980   -3.9480    0.0990 hc        1 MOL     -0.023990
    166 H77         5.6960   -5.6180   -0.4570 hc        1 MOL     -0.023990
    167 N15         9.0030   -2.5470   -3.4620 n         1 MOL     -0.257768
    168 C54         9.5110   -1.6940   -4.5270 c3        1 MOL     -0.170706
    169 H78         8.7390   -0.9840   -4.8220 h1        1 MOL      0.094272
    170 H79        10.3870   -1.1520   -4.1710 h1        1 MOL      0.094272
    171 H80         9.7860   -2.3080   -5.3850 h1        1 MOL      0.094272
    172 H81         9.5180   -2.6640   -2.5950 hn        1 MOL      0.192375
    173 Ca1         1.2790   -1.9900   -0.8400 Ca        1 MOL      1.637142
    174 O23         1.0800   -3.4410   -3.0640 oh        1 MOL     -0.809938
    175 H82         1.3540   -2.8910   -3.7920 ho        1 MOL      0.407353
    176 H83         0.7540   -4.2370   -3.4710 ho        1 MOL      0.407353
    177 O24         2.1480   -0.8460   -3.1630 oh        1 MOL     -0.809938
    178 H84         1.8720   -0.5300   -4.0220 ho        1 MOL      0.407353
    179 H85         3.0770   -0.6310   -3.1060 ho        1 MOL      0.407353
    180 O25         3.8450   -1.1870    0.0060 oh        1 MOL     -0.809938
    181 H86         4.0780   -0.2690    0.1480 ho        1 MOL      0.407353
    182 H87         4.6200   -1.5650   -0.4070 ho        1 MOL      0.407353
    183 O26        -0.2300   -4.3810   -0.4770 oh        1 MOL     -0.809938
    184 H88         0.0910   -5.2790   -0.5860 ho        1 MOL      0.407353
    185 H89        -0.6800   -4.1860   -1.2990 ho        1 MOL      0.407353
@<TRIPOS>BOND
     1    1    2 1   
     2    1    4 1   
     3    1    5 1   
     4    1    6 1   
     5    2    3 2   
     6    2    7 1   
     7    7    8 1   
     8    7   15 1   
     9    8    9 1   
    10    8   11 1   
    11    8   16 1   
    12    9   10 2   
    13    9   19 1   
    14   11   12 1   
    15   11   17 1   
    16   11   18 1   
    17   12   13 1   
    18   12   14 1   
    19   19   20 1   
    20   19   28 1   
    21   20   21 1   
    22   20   23 1   
    23   20   29 1   
    24   21   22 2   
    25   21   41 1   
    26   23   24 1   
    27   23   30 1   
    28   23   31 1   
    29   24   25 1   
    30   24   32 1   
    31   24   33 1   
    32   25   26 1   
    33   25   34 1   
    34   25   35 1   
    35   26   27 1   
    36   26   36 1   
    37   26   37 1   
    38   27   38 1   
    39   27   39 1   
    40   27   40 1   
    41   41   42 1   
    42   41   49 1   
    43   42   43 1   
    44   42   45 1   
    45   42   50 1   
    46   43   44 2   
    47   43   53 1   
    48   45   46 1   
    49   45   51 1   
    50   45   52 1   
    51   46   47 1   
    52   46   48 1   
    53   53   54 1   
    54   53   57 1   
    55   54   55 1   
    56   54   58 1   
    57   54   59 1   
    58   55   56 2   
    59   55   60 1   
    60   60   61 1   
    61   60   68 1   
    62   61   62 1   
    63   61   64 1   
    64   61   69 1   
    65   62   63 2   
    66   62   74 1   
    67   64   65 1   
    68   64   70 1   
    69   64   71 1   
    70   65   66 1   
    71   65   67 2   
    72   66   72 1   
    73   66   73 1   
    74   74   75 1   
    75   74   78 1   
    76   75   76 1   
    77   75   79 1   
    78   75   80 1   
    79   76   77 2   
    80   76   81 1   
    81   81   82 1   
    82   81   93 1   
    83   82   83 1   
    84   82   85 1   
    85   82   94 1   
    86   83   84 2   
    87   83  102 1   
    88   85   86 1   
    89   85   95 1   
    90   85   96 1   
    91   86   87 ar  
    92   86   88 ar  
    93   87   89 ar  
    94   87   97 1   
    95   88   90 ar  
    96   88   98 1   
    97   89   91 ar  
    98   89   99 1   
    99   90   91 ar  
   100   90  100 1   
   101   91   92 1   
   102   92  101 1   
   103  102  103 1   
   104  102  110 1   
   105  103  104 1   
   106  103  106 1   
   107  103  111 1   
   108  104  105 2   
   109  104  121 1   
   110  106  107 1   
   111  106  108 1   
   112  106  112 1   
   113  107  109 1   
   114  107  113 1   
   115  107  114 1   
   116  108  115 1   
   117  108  116 1   
   118  108  117 1   
   119  109  118 1   
   120  109  119 1   
   121  109  120 1   
   122  121  122 1   
   123  121  127 1   
   124  122  123 1   
   125  122  125 1   
   126  122  128 1   
   127  123  124 2   
   128  123  132 1   
   129  125  126 1   
   130  125  129 1   
   131  125  130 1   
   132  126  131 1   
   133  132  133 1   
   134  132  137 1   
   135  133  134 1   
   136  133  136 1   
   137  133  138 1   
   138  134  135 2   
   139  134  142 1   
   140  136  139 1   
   141  136  140 1   
   142  136  141 1   
   143  142  143 1   
   144  142  147 1   
   145  143  144 1   
   146  143  146 1   
   147  143  148 1   
   148  144  145 2   
   149  144  152 1   
   150  146  149 1   
   151  146  150 1   
   152  146  151 1   
   153  152  153 1   
   154  152  161 1   
   155  153  154 1   
   156  153  156 1   
   157  153  162 1   
   158  154  155 2   
   159  154  167 1   
   160  156  157 1   
   161  156  163 1   
   162  156  164 1   
   163  157  158 1   
   164  157  165 1   
   165  157  166 1   
   166  158  159 1   
   167  158  160 1   
   168  167  168 1   
   169  167  172 1   
   170  168  169 1   
   171  168  170 1   
   172  168  171 1   
   173  174  175 1   
   174  174  176 1   
   175  177  178 1   
   176  177  179 1   
   177  180  181 1   
   178  180  182 1   
   179  183  184 1   
   180  183  185 1   
@<TRIPOS>SUBSTRUCTURE
     1 MOL         1 TEMP              0 ****  ****    0 ROOT
