@<TRIPOS>MOLECULE
MOL
  188   182     1     0     0
SMALL
resp


@<TRIPOS>ATOM
      1 C1          5.5380    0.7830    5.5200 c3        1 MOL     -0.401974
      2 C2          4.9970    0.7660    4.0650 c         1 MOL      0.779335
      3 O1          3.8390    1.0730    3.8650 o         1 MOL     -0.582177
      4 H1          4.7480    0.4760    6.2050 hc        1 MOL      0.096936
      5 H2          6.3780    0.0930    5.6040 hc        1 MOL      0.096936
      6 H3          5.8670    1.7900    5.7740 hc        1 MOL      0.096936
      7 N1          5.8550    0.2450    3.1280 n         1 MOL     -0.672002
      8 C3          5.5300    0.1720    1.6520 c3        1 MOL      0.011359
      9 C4          6.2080   -1.0680    1.0690 c         1 MOL      0.492327
     10 O2          7.0110   -0.9490    0.1360 o         1 MOL     -0.452746
     11 C5          5.9350    1.4800    0.8990 c3        1 MOL     -0.084468
     12 C6          7.3260    1.9800    1.3220 c         1 MOL      0.679474
     13 O3          8.1840    1.2340    1.8940 o         1 MOL     -0.636396
     14 O4          7.5620    3.1690    1.0970 o         1 MOL     -0.636396
     15 H4          6.7700   -0.0770    3.3790 hn        1 MOL      0.338039
     16 H5          4.4760   -0.0400    1.4420 h1        1 MOL      0.046574
     17 H6          5.2130    2.2600    1.1600 hc        1 MOL      0.054851
     18 H7          5.8950    1.3650   -0.1910 hc        1 MOL      0.054851
     19 N2          5.8870   -2.2590    1.5840 n         1 MOL     -0.218398
     20 C7          6.4850   -3.6110    1.2080 c3        1 MOL      0.022178
     21 C8          6.3030   -4.1000   -0.2120 c         1 MOL      0.579144
     22 O5          7.1260   -4.8770   -0.7220 o         1 MOL     -0.540107
     23 C9          7.8800   -3.6980    1.8610 c3        1 MOL     -0.327432
     24 C10         7.9060   -3.3160    3.4230 c3        1 MOL      0.073367
     25 C11         7.1220   -4.3600    4.2860 c3        1 MOL     -0.184941
     26 C12         7.8300   -5.6880    4.5510 c3        1 MOL      0.193622
     27 N3          7.0100   -6.6610    5.3710 n4        1 MOL     -0.280000
     28 H8          5.0890   -2.2970    2.2100 hn        1 MOL      0.186927
     29 H9          5.8530   -4.2940    1.7560 h1        1 MOL      0.053128
     30 H10         8.6010   -3.0990    1.3110 hc        1 MOL      0.126957
     31 H11         8.2140   -4.7340    1.7750 hc        1 MOL      0.126957
     32 H12         7.4440   -2.3340    3.5620 hc        1 MOL      0.043911
     33 H13         8.8920   -3.1450    3.8500 hc        1 MOL      0.043911
     34 H14         6.1720   -4.6510    3.8500 hc        1 MOL      0.036187
     35 H15         6.8340   -3.8760    5.2270 hc        1 MOL      0.036187
     36 H16         8.8380   -5.5010    4.9160 hx        1 MOL      0.035203
     37 H17         7.9860   -6.1620    3.5820 hx        1 MOL      0.035203
     38 H18         7.4840   -7.5590    5.3900 hn        1 MOL      0.253773
     39 H19         6.9300   -6.3740    6.3340 hn        1 MOL      0.253773
     40 H20         6.0510   -6.7500    5.0530 hn        1 MOL      0.253773
     41 N4          5.2020   -3.7110   -0.8080 n         1 MOL     -0.556451
     42 C13         4.7800   -3.9670   -2.2280 c3        1 MOL      0.447533
     43 C14         4.5100   -2.6040   -3.0350 c         1 MOL      0.198205
     44 O6          3.7740   -2.5990   -4.0770 o         1 MOL     -0.457555
     45 C15         3.5950   -4.8800   -2.2890 c3        1 MOL     -0.538615
     46 C16         2.3480   -4.2690   -1.7930 c         1 MOL      0.814523
     47 O7          2.1030   -3.9030   -0.6170 o         1 MOL     -0.729059
     48 O8          1.3810   -4.2110   -2.5810 o         1 MOL     -0.729059
     49 H21         4.6610   -3.0850   -0.2280 hn        1 MOL      0.168858
     50 H22         5.6980   -4.4150   -2.6050 h1        1 MOL      0.030946
     51 H23         3.7950   -5.7960   -1.7320 hc        1 MOL      0.128925
     52 H24         3.5440   -5.2900   -3.3000 hc        1 MOL      0.128925
     53 N5          4.9790   -1.5180   -2.4700 n         1 MOL     -0.038692
     54 C17         4.8580   -0.1470   -2.9460 c3        1 MOL     -0.069104
     55 C18         6.1790    0.3690   -3.5230 c         1 MOL      0.598911
     56 O9          7.1180   -0.3320   -3.6850 o         1 MOL     -0.563972
     57 H25         5.5820   -1.6510   -1.6670 hn        1 MOL      0.141679
     58 H26         4.6730    0.5230   -2.1020 h1        1 MOL      0.053614
     59 H27         4.1010    0.0460   -3.7060 h1        1 MOL      0.053614
     60 N6          6.3410    1.6100   -3.7810 n         1 MOL     -0.497351
     61 C19         5.3550    2.7550   -3.6940 c3        1 MOL      0.079746
     62 C20         5.7370    3.6280   -2.4590 c         1 MOL      0.577078
     63 O10         6.8290    4.0280   -2.3280 o         1 MOL     -0.479016
     64 C21         5.3920    3.6070   -5.0000 c3        1 MOL     -0.318013
     65 C22         4.5670    4.8280   -4.8870 c         1 MOL      0.640289
     66 N7          3.2710    4.7590   -4.5550 n         1 MOL     -0.805278
     67 O11         5.1550    5.9200   -4.9370 o         1 MOL     -0.530117
     68 H28         7.2770    1.8510   -4.0780 hn        1 MOL      0.329307
     69 H29         4.3460    2.3590   -3.5980 h1        1 MOL      0.062618
     70 H30         4.9140    2.9770   -5.7520 hc        1 MOL      0.116252
     71 H31         6.4030    3.7550   -5.3900 hc        1 MOL      0.116252
     72 H32         2.8320    3.8650   -4.4000 hn        1 MOL      0.372414
     73 H33         2.8930    5.6690   -4.3390 hn        1 MOL      0.372414
     74 N8          4.7780    4.0570   -1.6550 n         1 MOL     -0.414084
     75 C23         3.4090    3.6030   -1.6380 c3        1 MOL     -0.067679
     76 C24         2.5120    4.5960   -0.8530 c         1 MOL      0.617607
     77 O12         2.8890    5.3450    0.0370 o         1 MOL     -0.509571
     78 H34         5.0830    4.6690   -0.9180 hn        1 MOL      0.292147
     79 H35         3.3420    2.6140   -1.1840 h1        1 MOL      0.023066
     80 H36         2.9390    3.4720   -2.6140 h1        1 MOL      0.023066
     81 N9          1.2050    4.4070   -0.9980 n         1 MOL     -0.517469
     82 C25         0.2240    4.7870    0.0770 c3        1 MOL      0.016400
     83 C26        -1.0160    3.8640    0.1060 c         1 MOL      0.609187
     84 O13        -1.2400    3.1380   -0.8510 o         1 MOL     -0.504597
     85 C27        -0.1960    6.2280   -0.2630 c3        1 MOL     -0.061669
     86 C28        -0.9940    6.9420    0.8170 ca        1 MOL      0.055864
     87 C29        -2.1780    7.6570    0.6400 ca        1 MOL     -0.153750
     88 C30        -0.3770    7.0670    2.0960 ca        1 MOL     -0.153750
     89 C31        -2.7960    8.3390    1.7140 ca        1 MOL     -0.202600
     90 C32        -0.9690    7.7720    3.0960 ca        1 MOL     -0.202600
     91 C33        -2.1380    8.4420    2.9370 ca        1 MOL      0.283300
     92 O14        -2.7390    9.1180    3.9420 oh        1 MOL     -0.488439
     93 H37         0.9170    3.8070   -1.7560 hn        1 MOL      0.275530
     94 H38         0.6750    4.7340    1.0620 h1        1 MOL      0.103900
     95 H39        -0.6590    6.3390   -1.2490 hc        1 MOL      0.061002
     96 H40         0.6810    6.8580   -0.3840 hc        1 MOL      0.061002
     97 H41        -2.5840    7.6180   -0.3590 ha        1 MOL      0.127904
     98 H42         0.6130    6.6680    2.2920 ha        1 MOL      0.127904
     99 H43        -3.7290    8.8650    1.5700 ha        1 MOL      0.129259
    100 H44        -0.4490    7.8480    4.0330 ha        1 MOL      0.129259
    101 H45        -2.3330    8.9530    4.7920 ho        1 MOL      0.368993
    102 N10        -1.7840    3.8760    1.2120 n         1 MOL     -0.459820
    103 C34        -2.9960    3.1160    1.3990 c3        1 MOL     -0.262006
    104 C35        -4.1720    3.4910    0.4660 c         1 MOL      0.565050
    105 O15        -4.2020    4.6110   -0.0550 o         1 MOL     -0.516987
    106 C36        -3.4460    3.3030    2.8470 c3        1 MOL      0.469137
    107 C37        -2.5770    2.4450    3.7730 c3        1 MOL     -0.053210
    108 C38        -3.4530    4.8320    3.1930 c3        1 MOL     -0.056431
    109 C39        -3.0290    2.5440    5.2660 c3        1 MOL     -0.166619
    110 H46        -1.5990    4.6610    1.8230 hn        1 MOL      0.230561
    111 H47        -2.7490    2.0590    1.2610 h1        1 MOL      0.093700
    112 H48        -4.4850    2.9890    2.9890 hc        1 MOL     -0.081872
    113 H49        -1.5210    2.6110    3.6060 hc        1 MOL      0.001300
    114 H50        -2.8200    1.4410    3.4190 hc        1 MOL      0.001300
    115 H51        -4.1130    5.0250    4.0420 hc        1 MOL      0.001462
    116 H52        -2.4040    5.0820    3.3670 hc        1 MOL      0.001462
    117 H53        -3.8120    5.3950    2.3310 hc        1 MOL      0.001462
    118 H54        -2.2610    2.2470    5.9930 hc        1 MOL      0.037268
    119 H55        -3.2330    3.5850    5.5410 hc        1 MOL      0.037268
    120 H56        -3.9890    2.0520    5.4010 hc        1 MOL      0.037268
    121 N11        -5.0850    2.5980    0.3040 n         1 MOL     -0.315877
    122 C40        -6.2250    2.7560   -0.6420 c3        1 MOL     -0.072404
    123 C41        -6.4780    1.4770   -1.3570 c         1 MOL      0.682109
    124 O16        -5.9970    0.3630   -0.9760 o         1 MOL     -0.536448
    125 C42        -7.4820    3.1330    0.1260 c3        1 MOL     -0.080586
    126 O17        -7.7710    2.2730    1.0750 oh        1 MOL     -0.553876
    127 H57        -4.9220    1.6400    0.5720 hn        1 MOL      0.248202
    128 H58        -6.0030    3.5070   -1.4040 h1        1 MOL      0.088895
    129 H59        -8.3660    3.1750   -0.5040 h1        1 MOL      0.082014
    130 H60        -7.2650    4.0570    0.6640 h1        1 MOL      0.082014
    131 H61        -8.5290    2.6260    1.5470 ho        1 MOL      0.426255
    132 N12        -7.3360    1.5730   -2.3590 n         1 MOL     -0.511750
    133 C43        -7.6850    0.4640   -3.2290 c3        1 MOL      0.146558
    134 C44        -8.2960   -0.8090   -2.4300 c         1 MOL      0.473800
    135 O18        -7.9450   -1.9900   -2.7350 o         1 MOL     -0.461035
    136 C45        -6.5270    0.1360   -4.1110 c3        1 MOL     -0.423419
    137 H62        -7.8290    2.4370   -2.5060 hn        1 MOL      0.297207
    138 H63        -8.5050    0.8260   -3.8570 h1        1 MOL      0.080242
    139 H64        -5.9690    1.0390   -4.3640 hc        1 MOL      0.137898
    140 H65        -5.8170   -0.4520   -3.5420 hc        1 MOL      0.137898
    141 H66        -6.9120   -0.3550   -5.0130 hc        1 MOL      0.137898
    142 N13        -9.1920   -0.6380   -1.4180 n         1 MOL     -0.706144
    143 C46        -9.9670   -1.7310   -0.7990 c3        1 MOL      0.401619
    144 C47        -9.2170   -2.9530   -0.2960 c         1 MOL      0.350045
    145 O19        -9.7670   -4.0480   -0.3160 o         1 MOL     -0.496013
    146 C48       -11.1320   -2.0040   -1.7560 c3        1 MOL     -0.231064
    147 H67        -9.4440    0.3190   -1.2430 hn        1 MOL      0.336150
    148 H68       -10.4390   -1.3400    0.0970 h1        1 MOL      0.008035
    149 H69       -10.9510   -2.4960   -2.7110 hc        1 MOL      0.065517
    150 H70       -11.8890   -2.5110   -1.1730 hc        1 MOL      0.065517
    151 H71       -11.6330   -1.0840   -2.0550 hc        1 MOL      0.065517
    152 N14        -7.9690   -2.8290    0.2130 n         1 MOL     -0.357052
    153 C49        -7.1950   -3.9460    0.6080 c3        1 MOL      0.073406
    154 C50        -7.3740   -4.2600    2.0410 c         1 MOL      0.456921
    155 O20        -7.4450   -5.3880    2.4880 o         1 MOL     -0.532197
    156 C51        -5.7010   -3.6920    0.1850 c3        1 MOL      0.516353
    157 C52        -4.8660   -4.9890    0.4510 c3        1 MOL     -0.203887
    158 C53        -3.4910   -4.8140   -0.2090 c         1 MOL      0.579170
    159 O21        -2.9100   -3.7030   -0.2220 o         1 MOL     -0.677084
    160 O22        -2.9530   -5.7230   -0.8340 o         1 MOL     -0.677084
    161 H72        -7.7260   -1.8790    0.4840 hn        1 MOL      0.263099
    162 H73        -7.5370   -4.8090    0.0440 h1        1 MOL      0.099664
    163 H74        -5.4140   -2.8710    0.8450 hc        1 MOL     -0.156024
    164 H75        -5.6580   -3.3800   -0.8590 hc        1 MOL     -0.156024
    165 H76        -5.3950   -5.8900    0.1260 hc        1 MOL      0.016775
    166 H77        -4.7400   -4.9690    1.5290 hc        1 MOL      0.016775
    167 N15        -7.5760   -3.1760    2.8370 n         1 MOL     -0.229732
    168 C54        -7.8660   -3.3770    4.2660 c3        1 MOL     -0.335662
    169 H78        -7.8590   -4.4440    4.4910 h1        1 MOL      0.131798
    170 H79        -7.1060   -2.8750    4.8650 h1        1 MOL      0.131798
    171 H80        -8.8470   -2.9640    4.5000 h1        1 MOL      0.131798
    172 H81        -7.8320   -2.2960    2.4050 hn        1 MOL      0.180168
    173 Ca1        -0.5970   -4.5380   -0.8910 Ca        1 MOL      1.652569
    174 O23         0.3170   -6.8930    0.1320 oh        1 MOL     -0.787025
    175 H82        -0.3040   -7.6100    0.2590 ho        1 MOL      0.397072
    176 H83         1.1640   -7.2540    0.3960 ho        1 MOL      0.397072
    177 O24        -0.9080   -6.3520   -2.8400 oh        1 MOL     -0.787025
    178 H84        -1.1250   -7.2910   -2.8280 ho        1 MOL      0.397072
    179 H85        -0.3940   -6.2310   -3.6360 ho        1 MOL      0.397072
    180 O25        -0.4700   -1.9710   -0.5780 oh        1 MOL     -0.787025
    181 H86        -0.3490   -1.8210    0.3570 ho        1 MOL      0.397072
    182 H87        -0.9580   -1.2040   -0.8710 ho        1 MOL      0.397072
    183 O26        -2.1780   -3.4780   -2.7690 oh        1 MOL     -0.787025
    184 H88        -2.8050   -2.9710   -2.2550 ho        1 MOL      0.397072
    185 H89        -2.7120   -4.0000   -3.3590 ho        1 MOL      0.397072
    186 O27        -0.3700   -4.6630    1.9010 oh        1 MOL     -0.787025
    187 H90         0.1300   -5.4590    2.0980 ho        1 MOL      0.397072
    188 H91        -0.4500   -4.2220    2.7470 ho        1 MOL      0.397072
@<TRIPOS>BOND
     1    1    2 1   
     2    1    4 1   
     3    1    5 1   
     4    1    6 1   
     5    2    3 2   
     6    2    7 1   
     7    7    8 1   
     8    7   15 1   
     9    8    9 1   
    10    8   11 1   
    11    8   16 1   
    12    9   10 2   
    13    9   19 1   
    14   11   12 1   
    15   11   17 1   
    16   11   18 1   
    17   12   13 1   
    18   12   14 1   
    19   19   20 1   
    20   19   28 1   
    21   20   21 1   
    22   20   23 1   
    23   20   29 1   
    24   21   22 2   
    25   21   41 1   
    26   23   24 1   
    27   23   30 1   
    28   23   31 1   
    29   24   25 1   
    30   24   32 1   
    31   24   33 1   
    32   25   26 1   
    33   25   34 1   
    34   25   35 1   
    35   26   27 1   
    36   26   36 1   
    37   26   37 1   
    38   27   38 1   
    39   27   39 1   
    40   27   40 1   
    41   41   42 1   
    42   41   49 1   
    43   42   43 1   
    44   42   45 1   
    45   42   50 1   
    46   43   44 2   
    47   43   53 1   
    48   45   46 1   
    49   45   51 1   
    50   45   52 1   
    51   46   47 1   
    52   46   48 1   
    53   53   54 1   
    54   53   57 1   
    55   54   55 1   
    56   54   58 1   
    57   54   59 1   
    58   55   56 2   
    59   55   60 1   
    60   60   61 1   
    61   60   68 1   
    62   61   62 1   
    63   61   64 1   
    64   61   69 1   
    65   62   63 2   
    66   62   74 1   
    67   64   65 1   
    68   64   70 1   
    69   64   71 1   
    70   65   66 1   
    71   65   67 2   
    72   66   72 1   
    73   66   73 1   
    74   74   75 1   
    75   74   78 1   
    76   75   76 1   
    77   75   79 1   
    78   75   80 1   
    79   76   77 2   
    80   76   81 1   
    81   81   82 1   
    82   81   93 1   
    83   82   83 1   
    84   82   85 1   
    85   82   94 1   
    86   83   84 2   
    87   83  102 1   
    88   85   86 1   
    89   85   95 1   
    90   85   96 1   
    91   86   87 ar  
    92   86   88 ar  
    93   87   89 ar  
    94   87   97 1   
    95   88   90 ar  
    96   88   98 1   
    97   89   91 ar  
    98   89   99 1   
    99   90   91 ar  
   100   90  100 1   
   101   91   92 1   
   102   92  101 1   
   103  102  103 1   
   104  102  110 1   
   105  103  104 1   
   106  103  106 1   
   107  103  111 1   
   108  104  105 2   
   109  104  121 1   
   110  106  107 1   
   111  106  108 1   
   112  106  112 1   
   113  107  109 1   
   114  107  113 1   
   115  107  114 1   
   116  108  115 1   
   117  108  116 1   
   118  108  117 1   
   119  109  118 1   
   120  109  119 1   
   121  109  120 1   
   122  121  122 1   
   123  121  127 1   
   124  122  123 1   
   125  122  125 1   
   126  122  128 1   
   127  123  124 2   
   128  123  132 1   
   129  125  126 1   
   130  125  129 1   
   131  125  130 1   
   132  126  131 1   
   133  132  133 1   
   134  132  137 1   
   135  133  134 1   
   136  133  136 1   
   137  133  138 1   
   138  134  135 2   
   139  134  142 1   
   140  136  139 1   
   141  136  140 1   
   142  136  141 1   
   143  142  143 1   
   144  142  147 1   
   145  143  144 1   
   146  143  146 1   
   147  143  148 1   
   148  144  145 2   
   149  144  152 1   
   150  146  149 1   
   151  146  150 1   
   152  146  151 1   
   153  152  153 1   
   154  152  161 1   
   155  153  154 1   
   156  153  156 1   
   157  153  162 1   
   158  154  155 2   
   159  154  167 1   
   160  156  157 1   
   161  156  163 1   
   162  156  164 1   
   163  157  158 1   
   164  157  165 1   
   165  157  166 1   
   166  158  159 1   
   167  158  160 1   
   168  167  168 1   
   169  167  172 1   
   170  168  169 1   
   171  168  170 1   
   172  168  171 1   
   173  174  175 1   
   174  174  176 1   
   175  177  178 1   
   176  177  179 1   
   177  180  181 1   
   178  180  182 1   
   179  183  184 1   
   180  183  185 1   
   181  186  187 1   
   182  186  188 1   
@<TRIPOS>SUBSTRUCTURE
     1 MOL         1 TEMP              0 ****  ****    0 ROOT
