@<TRIPOS>MOLECULE
MOL
  178   175     1     0     0
SMALL
resp


@<TRIPOS>ATOM
      1 C1          5.0490   -1.2480    3.0480 c3        1 MOL     -0.459175
      2 C2          6.2800   -0.5870    2.5360 c         1 MOL      0.648343
      3 O1          6.2520    0.3180    1.6830 o         1 MOL     -0.637525
      4 H1          4.3160   -0.4890    3.3220 hc        1 MOL      0.135553
      5 H2          4.6320   -1.8910    2.2730 hc        1 MOL      0.135553
      6 H3          5.2960   -1.8480    3.9250 hc        1 MOL      0.135553
      7 N1          7.4530   -0.9730    2.9910 n         1 MOL     -0.451074
      8 C3          8.7730   -0.4880    2.4890 c3        1 MOL      0.271455
      9 C4          9.0890   -1.0000    1.0910 c         1 MOL      0.632874
     10 O2          8.8160   -2.1670    0.7450 o         1 MOL     -0.523131
     11 C5          9.8370   -0.9410    3.5100 c3        1 MOL     -0.464417
     12 C6          9.8940   -2.3890    3.9070 c         1 MOL      0.804866
     13 O3         10.9750   -2.8840    4.2200 o         1 MOL     -0.723550
     14 O4          8.9160   -3.1910    3.8540 o         1 MOL     -0.723550
     15 H4          7.4220   -1.7830    3.5920 hn        1 MOL      0.243919
     16 H5          8.7280    0.5980    2.5110 h1        1 MOL     -0.004520
     17 H6          9.5560   -0.4900    4.4620 hc        1 MOL      0.073706
     18 H7         10.8220   -0.6860    3.1180 hc        1 MOL      0.073706
     19 N2          9.3450   -0.1010    0.1300 n         1 MOL     -0.687412
     20 C7          9.2320   -0.3900   -1.2820 c3        1 MOL      0.502522
     21 C8          7.7880   -0.7610   -1.8040 c         1 MOL      0.217012
     22 O5          7.7770   -1.2050   -2.9550 o         1 MOL     -0.504491
     23 C9          9.6450    0.8450   -2.1210 c3        1 MOL     -0.360708
     24 H8          9.6320    0.8300    0.4030 hn        1 MOL      0.290428
     25 H9          9.9220   -1.1940   -1.5600 h1        1 MOL     -0.007331
     26 H10        10.3960    0.5960   -2.8790 hc        1 MOL      0.075321
     27 H11         8.7550    1.2600   -2.5950 hc        1 MOL      0.075321
     28 H12         9.9010    1.6310   -1.4100 hc        1 MOL      0.075321
     29 N3          6.7100   -0.5510   -0.9810 n         1 MOL     -0.068578
     30 C10         5.2710   -0.8240   -1.3240 c3        1 MOL      0.114358
     31 C11         4.7940    0.0910   -2.4190 c         1 MOL      0.432522
     32 O6          4.1260   -0.4200   -3.2880 o         1 MOL     -0.500487
     33 C12         5.1970   -2.3650   -1.4900 c3        1 MOL     -0.117266
     34 C13         3.7430   -2.9210   -1.7000 c         1 MOL      0.726478
     35 O7          3.4920   -3.6830   -2.7060 o         1 MOL     -0.766495
     36 O8          2.8150   -2.5730   -0.9530 o         1 MOL     -0.766495
     37 H13         6.9480   -0.1360   -0.0930 hn        1 MOL      0.083622
     38 H14         4.7220   -0.5240   -0.4310 h1        1 MOL      0.026034
     39 H15         5.7590   -2.8450   -0.6920 hc        1 MOL      0.040068
     40 H16         5.8340   -2.5980   -2.3440 hc        1 MOL      0.040068
     41 N4          5.2580    1.2950   -2.4350 n         1 MOL     -0.173573
     42 C14         5.2750    2.3000   -3.5350 c3        1 MOL     -0.275373
     43 C15         3.8570    2.7330   -3.8970 c         1 MOL      0.574779
     44 O9          3.6820    2.9740   -5.0740 o         1 MOL     -0.548638
     45 H17         5.7430    1.5910   -1.5990 hn        1 MOL      0.187424
     46 H18         5.6610    1.7390   -4.3840 h1        1 MOL      0.135234
     47 H19         5.9280    3.1560   -3.3790 h1        1 MOL      0.135234
     48 N5          2.9210    2.8410   -2.9370 n         1 MOL     -0.393236
     49 C16         1.5370    3.1540   -3.1960 c3        1 MOL      0.218461
     50 C17         1.1630    4.4120   -2.3590 c         1 MOL      0.304266
     51 O10         1.7290    4.5790   -1.2570 o         1 MOL     -0.475382
     52 C18         0.5890    1.9150   -3.0090 c3        1 MOL     -0.193516
     53 C19        -0.8790    2.1030   -3.4200 c         1 MOL      0.637268
     54 N6         -1.6490    2.6570   -2.4960 n         1 MOL     -0.714227
     55 O11        -1.2920    1.7260   -4.4890 o         1 MOL     -0.567729
     56 H20         3.1660    2.7320   -1.9570 hn        1 MOL      0.213688
     57 H21         1.5070    3.5010   -4.2260 h1        1 MOL     -0.025025
     58 H22         0.7100    1.7370   -1.9420 hc        1 MOL      0.113826
     59 H23         0.9950    1.0710   -3.5690 hc        1 MOL      0.113826
     60 H24        -1.2800    2.9830   -1.6100 hn        1 MOL      0.312892
     61 H25        -2.5900    2.9480   -2.6900 hn        1 MOL      0.312892
     62 N7          0.2510    5.2450   -2.8220 n         1 MOL     -0.154093
     63 C20        -0.1370    6.4640   -2.1860 c3        1 MOL     -0.343703
     64 C21        -1.0580    6.2370   -0.9980 c         1 MOL      0.599192
     65 O12        -2.0200    5.4900   -1.0920 o         1 MOL     -0.503949
     66 H26        -0.1990    5.0110   -3.6960 hn        1 MOL      0.242010
     67 H27        -0.6700    7.0920   -2.8950 h1        1 MOL      0.130460
     68 H28         0.7830    6.9990   -1.9530 h1        1 MOL      0.130460
     69 N8         -0.8100    6.9570    0.0770 n         1 MOL     -0.417381
     70 C22        -1.8230    7.0330    1.1400 c3        1 MOL     -0.164521
     71 C23        -1.9520    5.8020    2.0240 c         1 MOL      0.484568
     72 O13        -2.9230    5.8110    2.7850 o         1 MOL     -0.590300
     73 C24        -1.8510    8.3120    1.9140 c3        1 MOL      0.541707
     74 C25        -0.7000    8.4900    2.8800 c3        1 MOL     -0.344158
     75 O14        -1.8070    9.3470    1.0220 oh        1 MOL     -0.655253
     76 H29         0.0440    7.4840    0.1630 hn        1 MOL      0.282694
     77 H30        -2.7730    7.1710    0.6240 h1        1 MOL      0.108586
     78 H31        -2.7650    8.4250    2.4980 h1        1 MOL      0.026588
     79 H32        -1.0550    9.2380    0.4310 ho        1 MOL      0.363960
     80 H33         0.2210    8.4080    2.3120 hc        1 MOL      0.071182
     81 H34        -0.8770    9.4850    3.2960 hc        1 MOL      0.071182
     82 H35        -0.6960    7.7260    3.6640 hc        1 MOL      0.071182
     83 N9         -1.0930    4.8100    1.9270 n         1 MOL     -0.240093
     84 C26        -1.3760    3.4380    2.3950 c3        1 MOL     -0.045302
     85 C27        -1.1470    2.5010    1.1050 c         1 MOL      0.431961
     86 O15        -0.2440    2.6640    0.2720 o         1 MOL     -0.462673
     87 C28        -0.3850    3.1080    3.5340 c3        1 MOL      0.214017
     88 C29        -0.5090    4.2360    4.5990 c3        1 MOL      0.037152
     89 C30        -0.6600    1.7500    4.1570 c3        1 MOL     -0.086294
     90 C31         0.3150    4.1370    5.9340 c3        1 MOL     -0.152078
     91 H36        -0.2850    4.8910    1.3310 hn        1 MOL      0.196620
     92 H37        -2.4250    3.2590    2.6280 h1        1 MOL      0.093208
     93 H38         0.6510    3.1840    3.2120 hc        1 MOL     -0.007101
     94 H39        -1.5530    4.2770    4.8820 hc        1 MOL     -0.008992
     95 H40        -0.1490    5.1700    4.1720 hc        1 MOL     -0.008992
     96 H41         0.0380    1.6340    4.9920 hc        1 MOL      0.008347
     97 H42        -1.6940    1.6690    4.4870 hc        1 MOL      0.008347
     98 H43        -0.4550    0.9850    3.4070 hc        1 MOL      0.008347
     99 H44        -0.0850    3.3490    6.5680 hc        1 MOL      0.034029
    100 H45         1.3980    4.0340    5.7850 hc        1 MOL      0.034029
    101 H46         0.2610    5.0860    6.4630 hc        1 MOL      0.034029
    102 N10        -1.9850    1.4460    1.0620 n         1 MOL     -0.534971
    103 C32        -1.9150    0.2890    0.0890 c3        1 MOL      0.368775
    104 C33        -3.3150   -0.2020   -0.3190 c         1 MOL      0.437999
    105 O16        -3.4890   -1.4190   -0.6080 o         1 MOL     -0.436669
    106 C34        -1.1020   -0.8230    0.7400 c3        1 MOL     -0.256554
    107 C35        -0.5740   -1.9220   -0.1850 c         1 MOL      0.668692
    108 O17        -0.3860   -1.6630   -1.3830 o         1 MOL     -0.711211
    109 O18        -0.1280   -2.9550    0.4040 o         1 MOL     -0.711211
    110 H47        -2.6400    1.4730    1.8290 hn        1 MOL      0.266784
    111 H48        -1.3580    0.6540   -0.7650 h1        1 MOL      0.010865
    112 H49        -1.6830   -1.2540    1.5600 hc        1 MOL      0.083223
    113 H50        -0.2360   -0.4080    1.2660 hc        1 MOL      0.083223
    114 N11        -4.3770    0.6700   -0.3030 n         1 MOL     -0.511804
    115 C36        -5.7550    0.1760   -0.6230 c3        1 MOL      0.116852
    116 C37        -6.2100   -0.9300    0.3240 c         1 MOL      0.309158
    117 O19        -5.8370   -0.9420    1.5390 o         1 MOL     -0.537505
    118 C38        -6.7920    1.3190   -0.6900 c3        1 MOL     -0.154922
    119 C39        -8.1820    0.9010   -1.1510 ca        1 MOL      0.069236
    120 C40        -8.4880    0.9810   -2.5170 ca        1 MOL     -0.184869
    121 C41        -9.1250    0.3640   -0.2200 ca        1 MOL     -0.184869
    122 C42        -9.7880    0.5770   -2.9550 ca        1 MOL     -0.102417
    123 C43       -10.2820   -0.2300   -0.7950 ca        1 MOL     -0.102417
    124 C44       -10.5600   -0.1830   -2.1020 ca        1 MOL     -0.070026
    125 H51        -4.2100    1.6680   -0.3250 hn        1 MOL      0.290256
    126 H52        -5.5710   -0.3030   -1.5810 h1        1 MOL      0.083030
    127 H53        -6.4580    2.1950   -1.2490 hc        1 MOL      0.088782
    128 H54        -6.9540    1.7920    0.2750 hc        1 MOL      0.088782
    129 H55        -7.8130    1.3990   -3.2620 ha        1 MOL      0.133621
    130 H56        -8.8410    0.1970    0.8060 ha        1 MOL      0.133621
    131 H57       -10.1320    0.7020   -3.9750 ha        1 MOL      0.100990
    132 H58       -10.8850   -0.8090   -0.1220 ha        1 MOL      0.100990
    133 H59       -11.4790   -0.6570   -2.4390 ha        1 MOL      0.085256
    134 N12        -6.8920   -1.9930   -0.1820 n         1 MOL      0.098080
    135 C45        -7.5850   -3.0240    0.6200 c3        1 MOL      0.106655
    136 C46        -6.6610   -3.7650    1.5770 c         1 MOL      0.233616
    137 O20        -7.1050   -4.3490    2.5530 o         1 MOL     -0.531856
    138 C47        -8.3530   -3.9940   -0.3510 c3        1 MOL     -0.149511
    139 C48        -7.6790   -3.6770   -1.6510 c3        1 MOL      0.110518
    140 C49        -7.2750   -2.1540   -1.5580 c3        1 MOL     -0.472737
    141 H60        -8.2830   -2.5900    1.3370 h1        1 MOL      0.035666
    142 H61        -8.3480   -5.0590   -0.1180 hc        1 MOL      0.068144
    143 H62        -9.3580   -3.5720   -0.4350 hc        1 MOL      0.068144
    144 H63        -6.7940   -4.2820   -1.8610 hc        1 MOL      0.003163
    145 H64        -8.4580   -3.7920   -2.4110 hc        1 MOL      0.003163
    146 H65        -6.4180   -2.0130   -2.2170 h1        1 MOL      0.164116
    147 H66        -8.1440   -1.5220   -1.7460 h1        1 MOL      0.164116
    148 N13        -5.3890   -3.8020    1.3560 n         1 MOL      0.085762
    149 C50        -4.4330   -4.4350    2.1520 c3        1 MOL     -0.590075
    150 C51        -4.2810   -3.8670    3.6080 c         1 MOL      0.582156
    151 O21        -3.7100   -4.5980    4.4180 o         1 MOL     -0.544462
    152 C52        -3.1030   -4.5450    1.4190 c3        1 MOL      0.311219
    153 C53        -3.1370   -5.5040    0.1510 c3        1 MOL     -0.092594
    154 C54        -1.7890   -5.4890   -0.5040 c         1 MOL      0.619560
    155 O22        -1.6860   -4.7770   -1.5640 o         1 MOL     -0.759870
    156 O23        -0.7160   -5.9360   -0.1080 o         1 MOL     -0.759870
    157 H67        -5.0350   -3.5380    0.4540 hn        1 MOL      0.215576
    158 H68        -4.9430   -5.3560    2.4380 h1        1 MOL      0.177207
    159 H69        -2.4360   -5.0670    2.1170 hc        1 MOL      0.003887
    160 H70        -2.6310   -3.5960    1.1850 hc        1 MOL      0.003887
    161 H71        -3.8910   -5.0500   -0.4960 hc        1 MOL      0.002839
    162 H72        -3.4580   -6.5270    0.3550 hc        1 MOL      0.002839
    163 N14        -4.5410   -2.5890    3.9000 n         1 MOL     -0.287851
    164 C55        -4.0830   -1.9870    5.1320 c3        1 MOL     -0.138137
    165 H73        -4.9080   -1.4500    5.6020 h1        1 MOL      0.071923
    166 H74        -3.7270   -2.7660    5.8070 h1        1 MOL      0.071923
    167 H75        -3.2720   -1.2920    4.9190 h1        1 MOL      0.071923
    168 H76        -4.8470   -2.0010    3.1380 hn        1 MOL      0.263960
    169 Ca1         0.9010   -4.2700   -1.4670 Ca        1 MOL      1.809065
    170 O24         2.7170   -5.8770   -0.3940 oh        1 MOL     -0.887837
    171 H77         3.0340   -6.6790   -0.7980 ho        1 MOL      0.433369
    172 H78         3.2050   -5.8100    0.4320 ho        1 MOL      0.433369
    173 O25         0.9710   -3.0120   -3.8820 oh        1 MOL     -0.887837
    174 H79         1.9180   -2.9290   -3.9420 ho        1 MOL      0.433369
    175 H80         0.6320   -2.2060   -4.2730 ho        1 MOL      0.433369
    176 O26         0.6730   -6.9320   -2.5680 oh        1 MOL     -0.887837
    177 H81         0.9080   -7.6260   -3.1800 ho        1 MOL      0.433369
    178 H82        -0.2050   -7.1520   -2.2810 ho        1 MOL      0.433369
@<TRIPOS>BOND
     1    1    2 1   
     2    1    4 1   
     3    1    5 1   
     4    1    6 1   
     5    2    3 2   
     6    2    7 1   
     7    7    8 1   
     8    7   15 1   
     9    8    9 1   
    10    8   11 1   
    11    8   16 1   
    12    9   10 2   
    13    9   19 1   
    14   11   12 1   
    15   11   17 1   
    16   11   18 1   
    17   12   13 1   
    18   12   14 1   
    19   19   20 1   
    20   19   24 1   
    21   20   21 1   
    22   20   23 1   
    23   20   25 1   
    24   21   22 2   
    25   21   29 1   
    26   23   26 1   
    27   23   27 1   
    28   23   28 1   
    29   29   30 1   
    30   29   37 1   
    31   30   31 1   
    32   30   33 1   
    33   30   38 1   
    34   31   32 2   
    35   31   41 1   
    36   33   34 1   
    37   33   39 1   
    38   33   40 1   
    39   34   35 1   
    40   34   36 1   
    41   41   42 1   
    42   41   45 1   
    43   42   43 1   
    44   42   46 1   
    45   42   47 1   
    46   43   44 2   
    47   43   48 1   
    48   48   49 1   
    49   48   56 1   
    50   49   50 1   
    51   49   52 1   
    52   49   57 1   
    53   50   51 2   
    54   50   62 1   
    55   52   53 1   
    56   52   58 1   
    57   52   59 1   
    58   53   54 1   
    59   53   55 2   
    60   54   60 1   
    61   54   61 1   
    62   62   63 1   
    63   62   66 1   
    64   63   64 1   
    65   63   67 1   
    66   63   68 1   
    67   64   65 2   
    68   64   69 1   
    69   69   70 1   
    70   69   76 1   
    71   70   71 1   
    72   70   73 1   
    73   70   77 1   
    74   71   72 2   
    75   71   83 1   
    76   73   74 1   
    77   73   75 1   
    78   73   78 1   
    79   74   80 1   
    80   74   81 1   
    81   74   82 1   
    82   75   79 1   
    83   83   84 1   
    84   83   91 1   
    85   84   85 1   
    86   84   87 1   
    87   84   92 1   
    88   85   86 2   
    89   85  102 1   
    90   87   88 1   
    91   87   89 1   
    92   87   93 1   
    93   88   90 1   
    94   88   94 1   
    95   88   95 1   
    96   89   96 1   
    97   89   97 1   
    98   89   98 1   
    99   90   99 1   
   100   90  100 1   
   101   90  101 1   
   102  102  103 1   
   103  102  110 1   
   104  103  104 1   
   105  103  106 1   
   106  103  111 1   
   107  104  105 2   
   108  104  114 1   
   109  106  107 1   
   110  106  112 1   
   111  106  113 1   
   112  107  108 1   
   113  107  109 1   
   114  114  115 1   
   115  114  125 1   
   116  115  116 1   
   117  115  118 1   
   118  115  126 1   
   119  116  117 2   
   120  116  134 1   
   121  118  119 1   
   122  118  127 1   
   123  118  128 1   
   124  119  120 ar  
   125  119  121 ar  
   126  120  122 ar  
   127  120  129 1   
   128  121  123 ar  
   129  121  130 1   
   130  122  124 ar  
   131  122  131 1   
   132  123  124 ar  
   133  123  132 1   
   134  124  133 1   
   135  134  135 1   
   136  134  140 1   
   137  135  136 1   
   138  135  138 1   
   139  135  141 1   
   140  136  137 2   
   141  136  148 1   
   142  138  139 1   
   143  138  142 1   
   144  138  143 1   
   145  139  140 1   
   146  139  144 1   
   147  139  145 1   
   148  140  146 1   
   149  140  147 1   
   150  148  149 1   
   151  148  157 1   
   152  149  150 1   
   153  149  152 1   
   154  149  158 1   
   155  150  151 2   
   156  150  163 1   
   157  152  153 1   
   158  152  159 1   
   159  152  160 1   
   160  153  154 1   
   161  153  161 1   
   162  153  162 1   
   163  154  155 1   
   164  154  156 1   
   165  163  164 1   
   166  163  168 1   
   167  164  165 1   
   168  164  166 1   
   169  164  167 1   
   170  170  171 1   
   171  170  172 1   
   172  173  174 1   
   173  173  175 1   
   174  176  177 1   
   175  176  178 1   
@<TRIPOS>SUBSTRUCTURE
     1 MOL         1 TEMP              0 ****  ****    0 ROOT
