@<TRIPOS>MOLECULE
MOL
  189   185     1     0     0
SMALL
resp


@<TRIPOS>ATOM
      1 C1          4.2240    4.5680   -3.4590 c3        1 MOL     -0.403809
      2 C2          4.9850    3.7080   -2.4660 c         1 MOL      0.702195
      3 O1          4.4070    3.2620   -1.4540 o         1 MOL     -0.587031
      4 H1          3.6480    3.9280   -4.1260 hc        1 MOL      0.108658
      5 H2          3.5480    5.2330   -2.9220 hc        1 MOL      0.108658
      6 H3          4.9280    5.1610   -4.0430 hc        1 MOL      0.108658
      7 N1          6.2470    3.3650   -2.7190 n         1 MOL     -0.637330
      8 C3          7.0360    2.2470   -2.2100 c3        1 MOL      0.253965
      9 C4          6.2490    0.9490   -1.9180 c         1 MOL      0.212615
     10 O2          5.9950    0.6230   -0.7400 o         1 MOL     -0.293361
     11 C5          7.9540    2.6760   -0.9750 c3        1 MOL     -0.098797
     12 C6          7.5520    3.6820    0.1380 c         1 MOL      0.722029
     13 O3          6.3960    3.7640    0.5070 o         1 MOL     -0.717740
     14 O4          8.3260    4.4630    0.6500 o         1 MOL     -0.717740
     15 H4          6.7120    3.7980   -3.4990 hn        1 MOL      0.315544
     16 H5          7.7750    1.9570   -2.9570 h1        1 MOL      0.008935
     17 H6          8.9150    3.0450   -1.3260 hc        1 MOL     -0.014256
     18 H7          8.1070    1.7730   -0.3830 hc        1 MOL     -0.014256
     19 N2          5.7500    0.2810   -2.9540 n         1 MOL     -0.236742
     20 C7          5.1160   -1.0660   -3.0820 c3        1 MOL     -0.020959
     21 C8          6.0040   -2.1450   -2.3960 c         1 MOL      0.425746
     22 O5          6.7310   -2.8430   -3.1360 o         1 MOL     -0.556766
     23 C9          3.6940   -0.9750   -2.5290 c3        1 MOL      0.017548
     24 C10         2.8120   -2.1400   -3.1090 c3        1 MOL      0.248536
     25 C11         2.9270    0.3710   -2.6770 c3        1 MOL     -0.377374
     26 C12         2.4070   -1.9820   -4.5670 c3        1 MOL     -0.417398
     27 H8          5.9160    0.7040   -3.8540 hn        1 MOL      0.202767
     28 H9          5.1030   -1.2990   -4.1480 h1        1 MOL      0.065070
     29 H10         3.6490   -1.1770   -1.4610 hc        1 MOL      0.046777
     30 H11         1.9320   -2.2500   -2.4710 hc        1 MOL     -0.032205
     31 H12         3.3750   -3.0600   -2.9670 hc        1 MOL     -0.032205
     32 H13         3.2370    1.0560   -1.8790 hc        1 MOL      0.103082
     33 H14         2.9610    0.7810   -3.6880 hc        1 MOL      0.103082
     34 H15         1.8650    0.2060   -2.5170 hc        1 MOL      0.103082
     35 H16         1.8210   -2.8230   -4.9500 hc        1 MOL      0.091511
     36 H17         1.8180   -1.0660   -4.6390 hc        1 MOL      0.091511
     37 H18         3.2560   -1.8960   -5.2350 hc        1 MOL      0.091511
     38 N3          5.8800   -2.4150   -1.0940 n         1 MOL     -0.071226
     39 C13         6.5810   -3.5330   -0.4780 c3        1 MOL     -0.036829
     40 C14         5.8060   -4.8790   -0.4110 c         1 MOL      0.524426
     41 O6          6.4470   -5.9660   -0.5940 o         1 MOL     -0.574134
     42 C15         7.1010   -3.1810    0.9170 c3        1 MOL     -0.022885
     43 C16         7.9080   -1.9180    0.8580 c         1 MOL      0.711401
     44 O7          7.6890   -1.0410    1.6740 o         1 MOL     -0.700706
     45 O8          8.8950   -1.8810    0.0580 o         1 MOL     -0.700706
     46 H19         5.2890   -1.8860   -0.4730 hn        1 MOL      0.005747
     47 H20         7.4650   -3.8100   -1.0550 h1        1 MOL      0.067913
     48 H21         7.7320   -4.0310    1.1750 hc        1 MOL     -0.000585
     49 H22         6.3190   -3.0610    1.6650 hc        1 MOL     -0.000585
     50 N4          4.5190   -4.8930   -0.0630 n         1 MOL     -0.502799
     51 C17         3.5690   -3.7960    0.3870 c3        1 MOL      0.097611
     52 C18         2.6550   -4.1080    1.5660 c         1 MOL      0.575972
     53 O9          2.1610   -5.2380    1.6030 o         1 MOL     -0.601542
     54 H23         4.1070   -5.8050    0.0690 hn        1 MOL      0.278246
     55 H24         2.9340   -3.6170   -0.4790 h1        1 MOL      0.072578
     56 H25         4.1030   -2.8850    0.6440 h1        1 MOL      0.072578
     57 N5          2.4310   -3.2930    2.5740 n         1 MOL     -0.558983
     58 C19         2.8800   -1.8700    2.8400 c3        1 MOL      0.015638
     59 C20         2.6310   -0.7710    1.7740 c         1 MOL      0.002405
     60 O10         3.6130   -0.2540    1.2110 o         1 MOL     -0.356704
     61 C21         4.1820   -1.7220    3.5770 c3        1 MOL     -0.012234
     62 C22         4.2710   -0.4720    4.4840 c         1 MOL      0.719737
     63 O11         3.2590    0.1990    4.6420 o         1 MOL     -0.690412
     64 O12         5.3220   -0.3970    5.1630 o         1 MOL     -0.690412
     65 H26         1.9020   -3.7140    3.3370 hn        1 MOL      0.361067
     66 H27         2.1460   -1.5580    3.5930 h1        1 MOL      0.093543
     67 H28         5.0480   -1.7490    2.9150 hc        1 MOL      0.011060
     68 H29         4.2690   -2.4910    4.3390 hc        1 MOL      0.011060
     69 N6          1.4080   -0.4540    1.3290 n         1 MOL     -0.080300
     70 C23         0.1300   -1.0490    1.6480 c3        1 MOL      0.040021
     71 C24        -0.1760   -2.2270    0.7520 c         1 MOL      0.442594
     72 O13         0.4910   -2.4150   -0.2690 o         1 MOL     -0.459687
     73 H30         1.3960    0.1950    0.5590 hn        1 MOL      0.185379
     74 H31        -0.6710   -0.3120    1.5710 h1        1 MOL      0.038874
     75 H32         0.1230   -1.4730    2.6540 h1        1 MOL      0.038874
     76 N7         -1.3280   -2.9730    1.0350 n         1 MOL     -0.353067
     77 C25        -1.6620   -4.2880    0.4030 c3        1 MOL     -0.170647
     78 C26        -2.2890   -4.1720   -1.0520 c         1 MOL      0.386826
     79 O14        -2.3590   -5.1270   -1.8200 o         1 MOL     -0.491009
     80 C27        -2.3790   -5.2350    1.3670 c3        1 MOL      0.150070
     81 C28        -1.6040   -5.8430    2.5400 c3        1 MOL     -0.306364
     82 C29        -1.0840   -4.8580    3.5320 c         1 MOL      0.688644
     83 N8          0.0400   -5.2290    4.1180 n         1 MOL     -0.792225
     84 O15        -1.6670   -3.7640    3.8240 o         1 MOL     -0.593071
     85 H33        -1.8540   -2.6960    1.8550 hn        1 MOL      0.247939
     86 H34        -0.6730   -4.7160    0.2260 h1        1 MOL      0.169686
     87 H35        -2.5990   -6.0490    0.6740 hc        1 MOL     -0.007395
     88 H36        -3.3980   -4.9230    1.6160 hc        1 MOL     -0.007395
     89 H37        -0.7290   -6.4040    2.2180 hc        1 MOL      0.100482
     90 H38        -2.3360   -6.4490    3.0760 hc        1 MOL      0.100482
     91 H39         0.5050   -6.1220    3.9550 hn        1 MOL      0.371033
     92 H40         0.3650   -4.6120    4.8410 hn        1 MOL      0.371033
     93 N9         -2.6910   -2.9730   -1.4570 n         1 MOL     -0.186264
     94 C30        -3.1990   -2.7180   -2.7900 c3        1 MOL     -0.088530
     95 C31        -4.7520   -2.5650   -2.8770 c         1 MOL      0.487995
     96 O16        -5.2900   -2.9380   -3.9380 o         1 MOL     -0.513281
     97 C32        -2.5030   -1.5120   -3.5560 c3        1 MOL      0.084152
     98 C33        -1.0580   -1.8800   -3.8520 c3        1 MOL     -0.039929
     99 C34        -2.5780   -0.2110   -2.7620 c3        1 MOL     -0.039929
    100 H41        -2.5570   -2.1800   -0.8530 hn        1 MOL      0.173395
    101 H42        -2.9630   -3.5860   -3.4130 h1        1 MOL      0.107638
    102 H43        -3.0110   -1.4460   -4.5180 hc        1 MOL      0.014181
    103 H44        -0.5310   -2.0750   -2.9130 hc        1 MOL      0.003544
    104 H45        -1.0960   -2.8150   -4.4120 hc        1 MOL      0.003544
    105 H46        -0.6760   -1.1080   -4.5170 hc        1 MOL      0.003544
    106 H47        -2.4790    0.5900   -3.4960 hc        1 MOL      0.003544
    107 H48        -3.4810   -0.1030   -2.1690 hc        1 MOL      0.003544
    108 H49        -1.7780   -0.0660   -2.0420 hc        1 MOL      0.003544
    109 N10        -5.3840   -2.1140   -1.8100 n         1 MOL     -0.341039
    110 C35        -6.7880   -1.8360   -1.7280 c3        1 MOL      0.132831
    111 C36        -7.0720   -0.3960   -1.2840 c         1 MOL      0.455709
    112 O17        -8.0910    0.1480   -1.7830 o         1 MOL     -0.524383
    113 C37        -7.5160   -2.8260   -0.8270 c3        1 MOL     -0.529769
    114 C38        -7.2980   -4.2530   -1.3820 c         1 MOL      0.646931
    115 N11        -6.5300   -5.0450   -0.7500 n         1 MOL     -0.679822
    116 O18        -7.9720   -4.5820   -2.3420 o         1 MOL     -0.549951
    117 H50        -4.7650   -1.9420   -1.0370 hn        1 MOL      0.194639
    118 H51        -7.1540   -1.8270   -2.7580 h1        1 MOL      0.083423
    119 H52        -8.5360   -2.4880   -0.9920 hc        1 MOL      0.197941
    120 H53        -7.1210   -2.7480    0.1900 hc        1 MOL      0.197941
    121 H54        -6.2360   -4.8110    0.1900 hn        1 MOL      0.338754
    122 H55        -6.5320   -5.9920   -1.1060 hn        1 MOL      0.338754
    123 N12        -6.2970    0.2060   -0.4020 n         1 MOL     -0.344291
    124 C39        -6.5480    1.6170    0.1120 c3        1 MOL      0.314764
    125 C40        -5.3060    2.5540    0.2840 c         1 MOL      0.240882
    126 O19        -4.1580    2.1140    0.2570 o         1 MOL     -0.479474
    127 C41        -7.2280    1.4890    1.4790 c3        1 MOL     -0.168331
    128 C42        -8.4770    0.6140    1.5490 ca        1 MOL     -0.017901
    129 C43        -9.7520    1.1850    1.2690 ca        1 MOL     -0.130497
    130 C44        -8.3700   -0.7700    1.6870 ca        1 MOL     -0.130497
    131 C45       -10.9320    0.4050    1.1870 ca        1 MOL     -0.213849
    132 C46        -9.5060   -1.5790    1.6310 ca        1 MOL     -0.213849
    133 C47       -10.8300   -1.0030    1.4050 ca        1 MOL      0.230490
    134 O20       -11.9060   -1.7950    1.1100 oh        1 MOL     -0.468919
    135 H56        -5.4440   -0.2040   -0.0640 hn        1 MOL      0.253091
    136 H57        -7.1160    2.1380   -0.6580 h1        1 MOL     -0.001201
    137 H58        -7.5640    2.4540    1.8360 hc        1 MOL      0.081807
    138 H59        -6.5050    1.0390    2.1630 hc        1 MOL      0.081807
    139 H60        -9.8000    2.2540    1.1640 ha        1 MOL      0.112959
    140 H61        -7.3890   -1.1920    1.8260 ha        1 MOL      0.112959
    141 H62       -11.8740    0.8780    0.9650 ha        1 MOL      0.130792
    142 H63        -9.4630   -2.6360    1.8400 ha        1 MOL      0.130792
    143 H64       -12.6600   -1.2030    1.0900 ho        1 MOL      0.364870
    144 N13        -5.4600    3.8410    0.3970 n         1 MOL     -0.346945
    145 C48        -4.5310    4.9220    0.7390 c3        1 MOL     -0.068342
    146 C49        -3.3590    5.3180   -0.2280 c         1 MOL      0.313529
    147 O21        -3.1790    6.5560   -0.5610 o         1 MOL     -0.495883
    148 C50        -4.1490    4.6920    2.1850 c3        1 MOL      0.248739
    149 C51        -3.7290    5.9450    2.9530 c3        1 MOL     -0.271465
    150 C52        -3.0480    5.6030    4.2790 c         1 MOL      0.723911
    151 O22        -1.8070    5.7620    4.3570 o         1 MOL     -0.736144
    152 O23        -3.7680    5.1250    5.2290 o         1 MOL     -0.736144
    153 H65        -6.4460    4.0470    0.4470 hn        1 MOL      0.268169
    154 H66        -5.1600    5.8120    0.8200 h1        1 MOL      0.052658
    155 H67        -3.3230    3.9780    2.0940 hc        1 MOL     -0.037465
    156 H68        -4.8960    4.2700    2.8580 hc        1 MOL     -0.037465
    157 H69        -4.5930    6.5440    3.2130 hc        1 MOL      0.031899
    158 H70        -3.0500    6.6170    2.4190 hc        1 MOL      0.031899
    159 N14        -2.5970    4.2680   -0.5760 n         1 MOL     -0.056467
    160 C53        -1.3560    4.2990   -1.3980 c3        1 MOL     -0.316299
    161 C54        -1.6760    4.8590   -2.7650 c         1 MOL      0.658123
    162 O24        -0.8720    5.5690   -3.3600 o         1 MOL     -0.540245
    163 C55        -0.8800    2.8450   -1.5430 c3        1 MOL      0.205872
    164 C56        -0.3920    2.0870   -0.3190 c3        1 MOL      0.142511
    165 C57         0.8760    2.6730    0.2910 c         1 MOL      0.515916
    166 O25         1.9900    2.0250    0.3330 o         1 MOL     -0.597863
    167 O26         0.7840    3.8230    0.7490 o         1 MOL     -0.597863
    168 H71        -2.9520    3.3800   -0.2640 hn        1 MOL      0.236249
    169 H72        -0.6090    4.8500   -0.8250 h1        1 MOL      0.206146
    170 H73         0.0300    2.8790   -2.1430 hc        1 MOL     -0.076422
    171 H74        -1.6100    2.2630   -2.1150 hc        1 MOL     -0.076422
    172 H75        -0.2060    1.0750   -0.6710 hc        1 MOL     -0.052821
    173 H76        -1.1490    2.0090    0.4700 hc        1 MOL     -0.052821
    174 N15        -2.9090    4.6450   -3.3490 n         1 MOL     -0.438244
    175 C58        -3.6260    5.4430   -4.4260 c3        1 MOL     -0.221829
    176 H77        -4.1850    4.7630   -5.0690 h1        1 MOL      0.109206
    177 H78        -4.3140    6.1480   -3.9590 h1        1 MOL      0.109206
    178 H79        -2.8950    5.9880   -5.0230 h1        1 MOL      0.109206
    179 H80        -3.6110    4.2250   -2.7510 hn        1 MOL      0.258429
    180 Ca1         4.3720    2.2440    0.9110 Ca        1 MOL      1.705636
    181 O27         3.3330    2.3510    3.3460 oh        1 MOL     -0.914284
    182 H81         2.9310    3.0140    3.9030 ho        1 MOL      0.426519
    183 H82         3.3090    1.5510    3.8700 ho        1 MOL      0.426519
    184 O28         3.3530    4.6380    1.6500 oh        1 MOL     -0.914284
    185 H83         3.2040    5.0450    2.5040 ho        1 MOL      0.426519
    186 H84         2.4740    4.4390    1.3280 ho        1 MOL      0.426519
    187 O29         6.5260    1.1950    2.2910 oh        1 MOL     -0.914284
    188 H85         6.9260    0.4370    1.8670 ho        1 MOL      0.426519
    189 H86         7.2540    1.5960    2.7820 ho        1 MOL      0.426519
@<TRIPOS>BOND
     1    1    2 1   
     2    1    4 1   
     3    1    5 1   
     4    1    6 1   
     5    2    3 2   
     6    2    7 1   
     7    7    8 1   
     8    7   15 1   
     9    8    9 1   
    10    8   11 1   
    11    8   16 1   
    12    9   10 2   
    13    9   19 1   
    14   11   12 1   
    15   11   17 1   
    16   11   18 1   
    17   12   13 1   
    18   12   14 1   
    19   19   20 1   
    20   19   27 1   
    21   20   21 1   
    22   20   23 1   
    23   20   28 1   
    24   21   22 2   
    25   21   38 1   
    26   23   24 1   
    27   23   25 1   
    28   23   29 1   
    29   24   26 1   
    30   24   30 1   
    31   24   31 1   
    32   25   32 1   
    33   25   33 1   
    34   25   34 1   
    35   26   35 1   
    36   26   36 1   
    37   26   37 1   
    38   38   39 1   
    39   38   46 1   
    40   39   40 1   
    41   39   42 1   
    42   39   47 1   
    43   40   41 2   
    44   40   50 1   
    45   42   43 1   
    46   42   48 1   
    47   42   49 1   
    48   43   44 1   
    49   43   45 1   
    50   50   51 1   
    51   50   54 1   
    52   51   52 1   
    53   51   55 1   
    54   51   56 1   
    55   52   53 2   
    56   52   57 1   
    57   57   58 1   
    58   57   65 1   
    59   58   59 1   
    60   58   61 1   
    61   58   66 1   
    62   59   60 2   
    63   59   69 1   
    64   61   62 1   
    65   61   67 1   
    66   61   68 1   
    67   62   63 1   
    68   62   64 1   
    69   69   70 1   
    70   69   73 1   
    71   70   71 1   
    72   70   74 1   
    73   70   75 1   
    74   71   72 2   
    75   71   76 1   
    76   76   77 1   
    77   76   85 1   
    78   77   78 1   
    79   77   80 1   
    80   77   86 1   
    81   78   79 2   
    82   78   93 1   
    83   80   81 1   
    84   80   87 1   
    85   80   88 1   
    86   81   82 1   
    87   81   89 1   
    88   81   90 1   
    89   82   83 1   
    90   82   84 2   
    91   83   91 1   
    92   83   92 1   
    93   93   94 1   
    94   93  100 1   
    95   94   95 1   
    96   94   97 1   
    97   94  101 1   
    98   95   96 2   
    99   95  109 1   
   100   97   98 1   
   101   97   99 1   
   102   97  102 1   
   103   98  103 1   
   104   98  104 1   
   105   98  105 1   
   106   99  106 1   
   107   99  107 1   
   108   99  108 1   
   109  109  110 1   
   110  109  117 1   
   111  110  111 1   
   112  110  113 1   
   113  110  118 1   
   114  111  112 2   
   115  111  123 1   
   116  113  114 1   
   117  113  119 1   
   118  113  120 1   
   119  114  115 1   
   120  114  116 2   
   121  115  121 1   
   122  115  122 1   
   123  123  124 1   
   124  123  135 1   
   125  124  125 1   
   126  124  127 1   
   127  124  136 1   
   128  125  126 2   
   129  125  144 1   
   130  127  128 1   
   131  127  137 1   
   132  127  138 1   
   133  128  129 ar  
   134  128  130 ar  
   135  129  131 ar  
   136  129  139 1   
   137  130  132 ar  
   138  130  140 1   
   139  131  133 ar  
   140  131  141 1   
   141  132  133 ar  
   142  132  142 1   
   143  133  134 1   
   144  134  143 1   
   145  144  145 1   
   146  144  153 1   
   147  145  146 1   
   148  145  148 1   
   149  145  154 1   
   150  146  147 2   
   151  146  159 1   
   152  148  149 1   
   153  148  155 1   
   154  148  156 1   
   155  149  150 1   
   156  149  157 1   
   157  149  158 1   
   158  150  151 1   
   159  150  152 1   
   160  159  160 1   
   161  159  168 1   
   162  160  161 1   
   163  160  163 1   
   164  160  169 1   
   165  161  162 2   
   166  161  174 1   
   167  163  164 1   
   168  163  170 1   
   169  163  171 1   
   170  164  165 1   
   171  164  172 1   
   172  164  173 1   
   173  165  166 1   
   174  165  167 1   
   175  174  175 1   
   176  174  179 1   
   177  175  176 1   
   178  175  177 1   
   179  175  178 1   
   180  181  182 1   
   181  181  183 1   
   182  184  185 1   
   183  184  186 1   
   184  187  188 1   
   185  187  189 1   
@<TRIPOS>SUBSTRUCTURE
     1 MOL         1 TEMP              0 ****  ****    0 ROOT
