@<TRIPOS>MOLECULE
MOL
  188   182     1     0     0
SMALL
resp


@<TRIPOS>ATOM
      1 C1          8.8120    6.7510   -0.2520 c3        1 MOL     -0.368491
      2 C2          9.0050    5.3710    0.3600 c         1 MOL      0.679904
      3 O1          9.0390    5.2550    1.6160 o         1 MOL     -0.579840
      4 H1          9.7200    7.3380   -0.1170 hc        1 MOL      0.098039
      5 H2          8.6010    6.6500   -1.3170 hc        1 MOL      0.098039
      6 H3          7.9790    7.2530    0.2380 hc        1 MOL      0.098039
      7 N1          9.1060    4.2940   -0.3870 n         1 MOL     -0.646064
      8 C3          9.6660    3.0310    0.0970 c3        1 MOL      0.390455
      9 C4          8.8610    1.8290   -0.5170 c         1 MOL      0.342231
     10 O2          8.3410    1.8450   -1.6170 o         1 MOL     -0.539523
     11 C5         11.1970    3.0190   -0.0500 c3        1 MOL     -0.192424
     12 C6         12.0550    1.9420    0.6850 c         1 MOL      0.745019
     13 O3         11.6570    1.2790    1.6880 o         1 MOL     -0.716623
     14 O4         13.1770    1.6880    0.2340 o         1 MOL     -0.716623
     15 H4          8.9160    4.3180   -1.3760 hn        1 MOL      0.320189
     16 H5          9.4870    3.0070    1.1720 h1        1 MOL     -0.014718
     17 H6         11.4420    4.0270    0.2790 hc        1 MOL      0.018724
     18 H7         11.4030    2.9980   -1.1170 hc        1 MOL      0.018724
     19 N2          8.7920    0.8250    0.3170 n         1 MOL     -0.168763
     20 C7          8.2590   -0.5650    0.2100 c3        1 MOL     -0.041989
     21 C8          7.0590   -0.6470    1.1080 c         1 MOL      0.594929
     22 O5          7.1830   -0.5860    2.2780 o         1 MOL     -0.529162
     23 C9          9.3490   -1.6560    0.5850 c3        1 MOL     -0.164518
     24 C10        10.5780   -1.5940   -0.2770 c3        1 MOL      0.042046
     25 C11        11.6340   -2.4280    0.3730 c3        1 MOL     -0.032456
     26 C12        12.9100   -2.3750   -0.4650 c3        1 MOL      0.204729
     27 N3         14.0490   -3.1570    0.2220 n4        1 MOL     -0.400624
     28 H8          9.1390    1.0610    1.2320 hn        1 MOL      0.193876
     29 H9          7.9650   -0.7110   -0.8320 h1        1 MOL      0.084574
     30 H10         8.9910   -2.6910    0.5590 hc        1 MOL      0.072612
     31 H11         9.6410   -1.4480    1.6120 hc        1 MOL      0.072612
     32 H12        10.9540   -0.5650   -0.3640 hc        1 MOL      0.011147
     33 H13        10.2850   -1.9940   -1.2510 hc        1 MOL      0.011147
     34 H14        11.3250   -3.4640    0.4770 hc        1 MOL      0.025538
     35 H15        11.9140   -2.1180    1.3810 hc        1 MOL      0.025538
     36 H16        13.0710   -1.3050   -0.5590 hx        1 MOL      0.018630
     37 H17        12.7420   -2.8340   -1.4390 hx        1 MOL      0.018630
     38 H18        14.5420   -2.5600    0.8820 hn        1 MOL      0.328704
     39 H19        13.7750   -4.0170    0.6770 hn        1 MOL      0.328704
     40 H20        14.7530   -3.3320   -0.4840 hn        1 MOL      0.328704
     41 N4          5.8790   -0.7740    0.5410 n         1 MOL     -0.581198
     42 C13         4.4970   -0.9700    1.1090 c3        1 MOL      0.324593
     43 C14         4.0950   -2.4800    1.3080 c         1 MOL      0.387644
     44 O6          4.2640   -3.2360    0.3170 o         1 MOL     -0.474557
     45 C15         3.4650   -0.2670    0.2090 c3        1 MOL     -0.177408
     46 C16         2.0720   -0.2700    0.8000 c         1 MOL      0.591755
     47 O7          1.3460   -1.2760    0.6890 o         1 MOL     -0.730858
     48 O8          1.6280    0.7560    1.4010 o         1 MOL     -0.730858
     49 H21         5.8370   -0.7310   -0.4680 hn        1 MOL      0.268145
     50 H22         4.5330   -0.6130    2.1360 h1        1 MOL     -0.006265
     51 H23         3.4230   -0.7620   -0.7690 hc        1 MOL      0.090540
     52 H24         3.8220    0.7610    0.1760 hc        1 MOL      0.090540
     53 N5          3.5390   -2.9360    2.4410 n         1 MOL     -0.223046
     54 C17         3.1150   -4.3440    2.7620 c3        1 MOL     -0.449015
     55 C18         2.1860   -5.0110    1.7220 c         1 MOL      0.751653
     56 O9          2.2440   -6.2070    1.5400 o         1 MOL     -0.551474
     57 H25         3.3770   -2.3280    3.2290 hn        1 MOL      0.234738
     58 H26         2.6260   -4.1750    3.7260 h1        1 MOL      0.184391
     59 H27         4.0560   -4.8850    2.7570 h1        1 MOL      0.184391
     60 N6          1.4040   -4.1730    0.9980 n         1 MOL     -0.554424
     61 C19         0.5680   -4.6740   -0.1540 c3        1 MOL      0.023977
     62 C20         0.7570   -4.0170   -1.5110 c         1 MOL      0.498888
     63 O10        -0.0120   -3.9780   -2.4530 o         1 MOL     -0.546231
     64 C21        -0.8780   -4.9020    0.2270 c3        1 MOL     -0.322329
     65 C22        -1.7620   -3.7460    0.6880 c         1 MOL      0.635147
     66 N7         -2.9880   -4.0310    0.7210 n         1 MOL     -0.633195
     67 O11        -1.3700   -2.6920    1.1890 o         1 MOL     -0.551831
     68 H28         1.4190   -3.1980    1.2290 hn        1 MOL      0.348526
     69 H29         0.8930   -5.6960   -0.3890 h1        1 MOL      0.130427
     70 H30        -0.9660   -5.5440    1.1040 hc        1 MOL      0.121699
     71 H31        -1.3620   -5.4210   -0.6040 hc        1 MOL      0.121699
     72 H32        -3.3160   -4.8260    0.1950 hn        1 MOL      0.324584
     73 H33        -3.5800   -3.4070    1.2510 hn        1 MOL      0.324584
     74 N8          1.9320   -3.3760   -1.6570 n         1 MOL     -0.187586
     75 C23         2.3640   -2.6760   -2.8560 c3        1 MOL     -0.299459
     76 C24         1.7620   -1.2810   -3.1720 c         1 MOL      0.611594
     77 O12         2.1010   -0.6730   -4.1840 o         1 MOL     -0.563494
     78 H34         2.4710   -3.3590   -0.8000 hn        1 MOL      0.149440
     79 H35         1.9790   -3.2660   -3.6990 h1        1 MOL      0.140459
     80 H36         3.4400   -2.5920   -3.0020 h1        1 MOL      0.140459
     81 N9          0.9760   -0.7530   -2.2490 n         1 MOL     -0.311492
     82 C25         0.2340    0.5000   -2.5870 c3        1 MOL     -0.104732
     83 C26        -1.2300    0.5130   -2.0170 c         1 MOL      0.643695
     84 O13        -1.4040    0.2240   -0.8520 o         1 MOL     -0.548500
     85 C27         1.0750    1.6940   -2.2340 c3        1 MOL     -0.066559
     86 C28         0.4020    2.9830   -2.6060 ca        1 MOL      0.042016
     87 C29         0.3070    3.3280   -3.9460 ca        1 MOL     -0.167765
     88 C30        -0.1420    3.7790   -1.6040 ca        1 MOL     -0.167765
     89 C31        -0.3770    4.4920   -4.3070 ca        1 MOL     -0.241204
     90 C32        -0.8160    4.9370   -1.9370 ca        1 MOL     -0.241204
     91 C33        -0.8820    5.3640   -3.2910 ca        1 MOL      0.331672
     92 O14        -1.5200    6.4970   -3.6250 oh        1 MOL     -0.497086
     93 H37         0.8280   -1.2420   -1.3800 hn        1 MOL      0.203031
     94 H38         0.1290    0.5780   -3.6730 h1        1 MOL      0.071087
     95 H39         2.0850    1.6230   -2.6490 hc        1 MOL      0.072864
     96 H40         1.3050    1.7530   -1.1710 hc        1 MOL      0.072864
     97 H41         0.6180    2.6280   -4.7000 ha        1 MOL      0.161377
     98 H42        -0.0440    3.5520   -0.5560 ha        1 MOL      0.161377
     99 H43        -0.5690    4.6300   -5.3670 ha        1 MOL      0.137072
    100 H44        -1.1820    5.5740   -1.1420 ha        1 MOL      0.137072
    101 H45        -1.7510    7.0810   -2.8940 ho        1 MOL      0.389561
    102 N10        -2.3010    0.8710   -2.8010 n         1 MOL     -0.549003
    103 C34        -3.6470    1.0380   -2.3110 c3        1 MOL     -0.159175
    104 C35        -4.2240   -0.3960   -1.9590 c         1 MOL      0.380464
    105 O15        -4.7740   -0.6210   -0.8500 o         1 MOL     -0.462493
    106 C36        -4.5060    1.9190   -3.2510 c3        1 MOL     -0.044909
    107 C37        -3.8090    3.3190   -3.5530 c3        1 MOL      0.271439
    108 C38        -5.9770    2.1190   -2.7400 c3        1 MOL     -0.192554
    109 C39        -4.5710    4.3730   -4.3860 c3        1 MOL     -0.200101
    110 H46        -2.0800    1.0630   -3.7730 hn        1 MOL      0.304330
    111 H47        -3.5070    1.6010   -1.3900 h1        1 MOL      0.139559
    112 H48        -4.6970    1.3560   -4.1680 hc        1 MOL      0.024885
    113 H49        -2.9170    3.0320   -4.1020 hc        1 MOL     -0.019461
    114 H50        -3.5250    3.8570   -2.6460 hc        1 MOL     -0.019461
    115 H51        -6.5390    1.2100   -2.5220 hc        1 MOL      0.061529
    116 H52        -5.9530    2.7080   -1.8180 hc        1 MOL      0.061529
    117 H53        -6.4960    2.6600   -3.5340 hc        1 MOL      0.061529
    118 H54        -4.7880    3.8800   -5.3330 hc        1 MOL      0.046071
    119 H55        -5.4230    4.7850   -3.8620 hc        1 MOL      0.046071
    120 H56        -3.8640    5.1760   -4.6200 hc        1 MOL      0.046071
    121 N11        -4.1590   -1.3090   -2.9300 n         1 MOL     -0.133074
    122 C40        -4.5650   -2.7580   -2.7920 c3        1 MOL     -0.228360
    123 C41        -5.9130   -3.0060   -2.0710 c         1 MOL      0.671006
    124 O16        -6.0140   -3.8430   -1.1400 o         1 MOL     -0.545426
    125 C42        -4.4720   -3.4920   -4.1310 c3        1 MOL      0.076709
    126 O17        -5.2690   -2.9890   -5.1670 oh        1 MOL     -0.609878
    127 H57        -3.7470   -1.0230   -3.7970 hn        1 MOL      0.270258
    128 H58        -3.8750   -3.2060   -2.0680 h1        1 MOL      0.101359
    129 H59        -4.6930   -4.5520   -3.9850 h1        1 MOL      0.068448
    130 H60        -3.4490   -3.4380   -4.5110 h1        1 MOL      0.068448
    131 H61        -4.9590   -3.4560   -5.9390 ho        1 MOL      0.432118
    132 N12        -6.9830   -2.2800   -2.4730 n         1 MOL     -0.428591
    133 C43        -8.3670   -2.3250   -1.9240 c3        1 MOL      0.181541
    134 C44        -8.5810   -1.9190   -0.4130 c         1 MOL      0.501921
    135 O18        -9.8000   -1.7520   -0.0390 o         1 MOL     -0.550309
    136 C45        -9.0060   -3.6170   -2.2600 c3        1 MOL     -0.290477
    137 H62        -6.8730   -1.6570   -3.2610 hn        1 MOL      0.278475
    138 H63        -8.9850   -1.5780   -2.4160 h1        1 MOL      0.067814
    139 H64        -8.6460   -4.3800   -1.5690 hc        1 MOL      0.084380
    140 H65       -10.0750   -3.4430   -2.1120 hc        1 MOL      0.084380
    141 H66        -8.8980   -3.9410   -3.2990 hc        1 MOL      0.084380
    142 N13        -7.5040   -1.5500    0.2320 n         1 MOL     -0.552860
    143 C46        -7.4280   -1.1490    1.6440 c3        1 MOL      0.467352
    144 C47        -7.7850    0.3490    1.7640 c         1 MOL      0.568141
    145 O19        -7.4650    1.0770    0.8410 o         1 MOL     -0.504315
    146 C48        -6.1670   -1.6720    2.2960 c3        1 MOL     -0.437295
    147 H67        -6.6060   -1.5010   -0.2270 hn        1 MOL      0.235907
    148 H68        -8.2270   -1.6250    2.2080 h1        1 MOL     -0.054005
    149 H69        -5.3290   -1.2610    1.7430 hc        1 MOL      0.111991
    150 H70        -6.1730   -1.6300    3.3850 hc        1 MOL      0.111991
    151 H71        -6.2240   -2.7570    2.1450 hc        1 MOL      0.111991
    152 N14        -8.3990    0.8550    2.8230 n         1 MOL     -0.692258
    153 C49        -8.5870    2.2990    3.1560 c3        1 MOL     -0.054704
    154 C50        -9.1740    3.2350    2.0870 c         1 MOL      0.491514
    155 O20        -9.0220    4.4090    2.2500 o         1 MOL     -0.506499
    156 C51        -7.2340    2.9220    3.7430 c3        1 MOL      0.497097
    157 C52        -6.6200    1.9540    4.7580 c3        1 MOL     -0.301484
    158 C53        -5.7240    2.7120    5.7450 c         1 MOL      0.716866
    159 O21        -6.2090    3.5510    6.5030 o         1 MOL     -0.711625
    160 O22        -4.5120    2.4690    5.8160 o         1 MOL     -0.711625
    161 H72        -8.4870    0.3280    3.6760 hn        1 MOL      0.350889
    162 H73        -9.3290    2.3480    3.9520 h1        1 MOL      0.116262
    163 H74        -7.3820    3.8630    4.2680 hc        1 MOL     -0.103620
    164 H75        -6.4730    3.1150    2.9820 hc        1 MOL     -0.103620
    165 H76        -6.1060    1.1050    4.3070 hc        1 MOL     -0.006570
    166 H77        -7.5220    1.5840    5.2460 hc        1 MOL     -0.006570
    167 N15        -9.9550    2.7130    1.0920 n         1 MOL     -0.364629
    168 C54       -10.4990    3.4440   -0.0400 c3        1 MOL     -0.084326
    169 H78       -11.5000    3.0740   -0.2640 h1        1 MOL      0.070867
    170 H79       -10.5510    4.5060    0.2030 h1        1 MOL      0.070867
    171 H80        -9.8570    3.3010   -0.9090 h1        1 MOL      0.070867
    172 H81        -9.9690    1.7100    1.0790 hn        1 MOL      0.274396
    173 Ca1        -0.7490   -0.2870    1.9780 Ca        1 MOL      1.784000
    174 O23        -3.2770    0.2450    1.3010 oh        1 MOL     -0.850720
    175 H82        -3.4640    1.1810    1.3130 ho        1 MOL      0.418347
    176 H83        -3.7550   -0.0840    0.5450 ho        1 MOL      0.418347
    177 O24        -1.2100    2.5850    1.8590 oh        1 MOL     -0.850720
    178 H84        -0.8130    3.4300    1.6500 ho        1 MOL      0.418347
    179 H85        -1.7410    2.7530    2.6380 ho        1 MOL      0.418347
    180 O25        -2.3450   -1.5340    3.8460 oh        1 MOL     -0.850720
    181 H86        -2.6650   -1.2140    4.6960 ho        1 MOL      0.418347
    182 H87        -2.8970   -2.2910    3.6530 ho        1 MOL      0.418347
    183 O26        -0.7680    0.9620    4.4760 oh        1 MOL     -0.850720
    184 H88        -0.4500    0.8230    5.3740 ho        1 MOL      0.418347
    185 H89        -1.4750    1.6010    4.5720 ho        1 MOL      0.418347
    186 O27         0.6820   -1.7100    3.7240 oh        1 MOL     -0.850720
    187 H90         1.5300   -1.3130    3.9120 ho        1 MOL      0.418347
    188 H91         0.4080   -2.0850    4.5670 ho        1 MOL      0.418347
@<TRIPOS>BOND
     1    1    2 1   
     2    1    4 1   
     3    1    5 1   
     4    1    6 1   
     5    2    3 2   
     6    2    7 1   
     7    7    8 1   
     8    7   15 1   
     9    8    9 1   
    10    8   11 1   
    11    8   16 1   
    12    9   10 2   
    13    9   19 1   
    14   11   12 1   
    15   11   17 1   
    16   11   18 1   
    17   12   13 1   
    18   12   14 1   
    19   19   20 1   
    20   19   28 1   
    21   20   21 1   
    22   20   23 1   
    23   20   29 1   
    24   21   22 2   
    25   21   41 1   
    26   23   24 1   
    27   23   30 1   
    28   23   31 1   
    29   24   25 1   
    30   24   32 1   
    31   24   33 1   
    32   25   26 1   
    33   25   34 1   
    34   25   35 1   
    35   26   27 1   
    36   26   36 1   
    37   26   37 1   
    38   27   38 1   
    39   27   39 1   
    40   27   40 1   
    41   41   42 1   
    42   41   49 1   
    43   42   43 1   
    44   42   45 1   
    45   42   50 1   
    46   43   44 2   
    47   43   53 1   
    48   45   46 1   
    49   45   51 1   
    50   45   52 1   
    51   46   47 1   
    52   46   48 1   
    53   53   54 1   
    54   53   57 1   
    55   54   55 1   
    56   54   58 1   
    57   54   59 1   
    58   55   56 2   
    59   55   60 1   
    60   60   61 1   
    61   60   68 1   
    62   61   62 1   
    63   61   64 1   
    64   61   69 1   
    65   62   63 2   
    66   62   74 1   
    67   64   65 1   
    68   64   70 1   
    69   64   71 1   
    70   65   66 1   
    71   65   67 2   
    72   66   72 1   
    73   66   73 1   
    74   74   75 1   
    75   74   78 1   
    76   75   76 1   
    77   75   79 1   
    78   75   80 1   
    79   76   77 2   
    80   76   81 1   
    81   81   82 1   
    82   81   93 1   
    83   82   83 1   
    84   82   85 1   
    85   82   94 1   
    86   83   84 2   
    87   83  102 1   
    88   85   86 1   
    89   85   95 1   
    90   85   96 1   
    91   86   87 ar  
    92   86   88 ar  
    93   87   89 ar  
    94   87   97 1   
    95   88   90 ar  
    96   88   98 1   
    97   89   91 ar  
    98   89   99 1   
    99   90   91 ar  
   100   90  100 1   
   101   91   92 1   
   102   92  101 1   
   103  102  103 1   
   104  102  110 1   
   105  103  104 1   
   106  103  106 1   
   107  103  111 1   
   108  104  105 2   
   109  104  121 1   
   110  106  107 1   
   111  106  108 1   
   112  106  112 1   
   113  107  109 1   
   114  107  113 1   
   115  107  114 1   
   116  108  115 1   
   117  108  116 1   
   118  108  117 1   
   119  109  118 1   
   120  109  119 1   
   121  109  120 1   
   122  121  122 1   
   123  121  127 1   
   124  122  123 1   
   125  122  125 1   
   126  122  128 1   
   127  123  124 2   
   128  123  132 1   
   129  125  126 1   
   130  125  129 1   
   131  125  130 1   
   132  126  131 1   
   133  132  133 1   
   134  132  137 1   
   135  133  134 1   
   136  133  136 1   
   137  133  138 1   
   138  134  135 2   
   139  134  142 1   
   140  136  139 1   
   141  136  140 1   
   142  136  141 1   
   143  142  143 1   
   144  142  147 1   
   145  143  144 1   
   146  143  146 1   
   147  143  148 1   
   148  144  145 2   
   149  144  152 1   
   150  146  149 1   
   151  146  150 1   
   152  146  151 1   
   153  152  153 1   
   154  152  161 1   
   155  153  154 1   
   156  153  156 1   
   157  153  162 1   
   158  154  155 2   
   159  154  167 1   
   160  156  157 1   
   161  156  163 1   
   162  156  164 1   
   163  157  158 1   
   164  157  165 1   
   165  157  166 1   
   166  158  159 1   
   167  158  160 1   
   168  167  168 1   
   169  167  172 1   
   170  168  169 1   
   171  168  170 1   
   172  168  171 1   
   173  174  175 1   
   174  174  176 1   
   175  177  178 1   
   176  177  179 1   
   177  180  181 1   
   178  180  182 1   
   179  183  184 1   
   180  183  185 1   
   181  186  187 1   
   182  186  188 1   
@<TRIPOS>SUBSTRUCTURE
     1 MOL         1 TEMP              0 ****  ****    0 ROOT
