@<TRIPOS>MOLECULE
MOL
  178   175     1     0     0
SMALL
resp


@<TRIPOS>ATOM
      1 C1          4.5580   -1.5290    3.0040 c3        1 MOL     -0.587239
      2 C2          5.7750   -0.6910    2.7640 c         1 MOL      0.837123
      3 O1          5.6580    0.3870    2.2400 o         1 MOL     -0.615644
      4 H1          4.3800   -1.6100    4.0760 hc        1 MOL      0.164490
      5 H2          3.6960   -1.0640    2.5260 hc        1 MOL      0.164490
      6 H3          4.7140   -2.5240    2.5860 hc        1 MOL      0.164490
      7 N1          6.9650   -1.0850    3.2320 n         1 MOL     -0.767067
      8 C3          8.2750   -0.4590    2.9040 c3        1 MOL      0.430472
      9 C4          8.4790   -0.7360    1.3710 c         1 MOL      0.456845
     10 O2          8.4040   -1.8700    0.9180 o         1 MOL     -0.560808
     11 C5          9.4700   -1.1280    3.6500 c3        1 MOL     -0.294104
     12 C6         10.8350   -0.5980    3.3190 c         1 MOL      0.719196
     13 O3         10.9560    0.4570    2.6470 o         1 MOL     -0.737120
     14 O4         11.8530   -1.2960    3.7070 o         1 MOL     -0.737120
     15 H4          6.9710   -1.9200    3.7930 hn        1 MOL      0.318099
     16 H5          8.3350    0.6140    3.0840 h1        1 MOL     -0.040987
     17 H6          9.5480   -2.1740    3.3540 hc        1 MOL      0.046643
     18 H7          9.3290   -1.0420    4.7260 hc        1 MOL      0.046643
     19 N2          8.8230    0.2400    0.5830 n         1 MOL     -0.307919
     20 C7          8.8790    0.0250   -0.8940 c3        1 MOL      0.308980
     21 C8          7.5540   -0.4220   -1.5570 c         1 MOL      0.444656
     22 O5          7.5560   -0.9180   -2.6410 o         1 MOL     -0.558384
     23 C9          9.5930    1.2190   -1.5980 c3        1 MOL     -0.420325
     24 H8          8.9100    1.1530    1.0210 hn        1 MOL      0.212834
     25 H9          9.5460   -0.8190   -1.0320 h1        1 MOL      0.053348
     26 H10        10.3610    0.9030   -2.3060 hc        1 MOL      0.102672
     27 H11         8.8240    1.8660   -2.0390 hc        1 MOL      0.102672
     28 H12        10.0690    1.8600   -0.8540 hc        1 MOL      0.102672
     29 N3          6.4020   -0.3350   -0.8820 n         1 MOL     -0.543069
     30 C10         5.0930   -0.9160   -1.3740 c3        1 MOL      0.441137
     31 C11         4.6410   -0.4390   -2.7090 c         1 MOL      0.370088
     32 O6          3.8270   -1.0480   -3.3850 o         1 MOL     -0.441239
     33 C12         5.1140   -2.5010   -1.2520 c3        1 MOL      0.014480
     34 C13         3.7590   -3.1740   -1.2850 c         1 MOL      0.591378
     35 O7          3.5300   -4.1840   -2.0700 o         1 MOL     -0.748369
     36 O8          2.8350   -2.5700   -0.7550 o         1 MOL     -0.748369
     37 H13         6.4260    0.1840   -0.0100 hn        1 MOL      0.182389
     38 H14         4.4160   -0.5100   -0.6190 h1        1 MOL      0.012962
     39 H15         5.6490   -2.7330   -0.3280 hc        1 MOL     -0.006689
     40 H16         5.6620   -2.9180   -2.0910 hc        1 MOL     -0.006689
     41 N4          5.1020    0.7470   -3.2420 n         1 MOL     -0.265642
     42 C14         4.7750    1.2760   -4.5170 c3        1 MOL     -0.140693
     43 C15         3.4450    2.0170   -4.5970 c         1 MOL      0.432894
     44 O9          3.0210    2.3000   -5.7750 o         1 MOL     -0.554763
     45 H17         5.7890    1.2980   -2.7470 hn        1 MOL      0.219501
     46 H18         4.6300    0.4240   -5.1840 h1        1 MOL      0.103609
     47 H19         5.5720    1.8810   -4.9390 h1        1 MOL      0.103609
     48 N5          2.7960    2.4100   -3.4920 n         1 MOL     -0.287111
     49 C16         1.4820    3.0830   -3.4600 c3        1 MOL      0.012738
     50 C17         1.4240    4.1220   -2.3320 c         1 MOL      0.436045
     51 O10         1.6800    3.8020   -1.1470 o         1 MOL     -0.446338
     52 C18         0.3500    2.0390   -3.2930 c3        1 MOL     -0.093050
     53 C19        -1.0630    2.5360   -3.6250 c         1 MOL      0.624223
     54 N6         -2.1110    1.8640   -3.2300 n         1 MOL     -0.819854
     55 O11        -1.2660    3.4670   -4.3710 o         1 MOL     -0.574900
     56 H20         3.2040    2.2590   -2.5840 hn        1 MOL      0.184670
     57 H21         1.2820    3.5440   -4.4320 h1        1 MOL      0.044988
     58 H22         0.3210    1.5510   -2.3140 hc        1 MOL      0.103801
     59 H23         0.5280    1.1890   -3.9570 hc        1 MOL      0.103801
     60 H24        -2.0030    1.0360   -2.6570 hn        1 MOL      0.374759
     61 H25        -3.0320    2.1830   -3.4800 hn        1 MOL      0.374759
     62 N7          1.0950    5.3470   -2.6920 n         1 MOL     -0.389813
     63 C20         0.7930    6.3820   -1.7730 c3        1 MOL     -0.089866
     64 C21        -0.5310    6.0820   -1.0270 c         1 MOL      0.527052
     65 O12        -1.3570    5.2750   -1.4560 o         1 MOL     -0.436758
     66 H26         0.9500    5.5040   -3.6860 hn        1 MOL      0.306550
     67 H27         0.6490    7.3650   -2.2230 h1        1 MOL      0.082552
     68 H28         1.6390    6.4450   -1.0840 h1        1 MOL      0.082552
     69 N8         -0.6540    6.6610    0.1940 n         1 MOL     -0.341291
     70 C22        -1.9010    6.7040    0.8950 c3        1 MOL     -0.323304
     71 C23        -2.1800    5.4860    1.6960 c         1 MOL      0.560543
     72 O13        -3.3650    5.1180    1.8200 o         1 MOL     -0.599639
     73 C24        -1.9790    7.8890    1.8250 c3        1 MOL      0.545941
     74 C25        -0.9890    8.0300    2.9610 c3        1 MOL     -0.460424
     75 O14        -1.7490    9.0640    1.1000 oh        1 MOL     -0.657564
     76 H29         0.0720    7.2790    0.5260 hn        1 MOL      0.213895
     77 H30        -2.7230    6.7070    0.1770 h1        1 MOL      0.164793
     78 H31        -2.9660    7.8450    2.2720 h1        1 MOL      0.021117
     79 H32        -0.8180    9.1090    0.8880 ho        1 MOL      0.384490
     80 H33        -1.2180    7.2650    3.7120 hc        1 MOL      0.110103
     81 H34         0.0690    8.0740    2.7000 hc        1 MOL      0.110103
     82 H35        -1.1290    8.9870    3.4690 hc        1 MOL      0.110103
     83 N9         -1.1870    4.7130    2.0020 n         1 MOL     -0.245377
     84 C26        -1.3020    3.2930    2.5360 c3        1 MOL      0.036972
     85 C27        -1.0960    2.2590    1.4780 c         1 MOL      0.525310
     86 O15        -0.0580    2.2700    0.8250 o         1 MOL     -0.495648
     87 C28        -0.4620    3.1980    3.8460 c3        1 MOL      0.221441
     88 C29        -0.8240    4.2210    4.9530 c3        1 MOL     -0.119137
     89 C30        -0.7260    1.7980    4.4070 c3        1 MOL     -0.374140
     90 C31        -2.3560    4.2170    5.3130 c3        1 MOL     -0.090817
     91 H36        -0.2580    4.9610    1.6890 hn        1 MOL      0.168640
     92 H37        -2.3250    3.1590    2.8860 h1        1 MOL      0.069449
     93 H38         0.6110    3.2520    3.6420 hc        1 MOL      0.007241
     94 H39        -0.5410    5.2370    4.6460 hc        1 MOL      0.019897
     95 H40        -0.2030    3.9080    5.7890 hc        1 MOL      0.019897
     96 H41        -0.1200    1.0780    3.8610 hc        1 MOL      0.101709
     97 H42        -0.2860    1.7850    5.4000 hc        1 MOL      0.101709
     98 H43        -1.8080    1.6270    4.3700 hc        1 MOL      0.101709
     99 H44        -2.9520    4.3200    4.4100 hc        1 MOL      0.020756
    100 H45        -2.7200    3.3680    5.8950 hc        1 MOL      0.020756
    101 H46        -2.5470    5.0830    5.9640 hc        1 MOL      0.020756
    102 N10        -1.9500    1.2590    1.4410 n         1 MOL     -0.712493
    103 C32        -1.8090    0.1610    0.4850 c3        1 MOL      0.657499
    104 C33        -2.9970   -0.2680   -0.2970 c         1 MOL      0.220534
    105 O16        -3.0890   -1.4320   -0.7280 o         1 MOL     -0.390444
    106 C34        -1.1080   -0.9850    1.3510 c3        1 MOL     -0.569610
    107 C35        -0.5400   -2.0510    0.4610 c         1 MOL      0.881199
    108 O17        -0.1960   -1.8740   -0.7510 o         1 MOL     -0.778007
    109 O18        -0.2270   -3.2080    0.8940 o         1 MOL     -0.778007
    110 H47        -2.7820    1.3450    1.9980 hn        1 MOL      0.330665
    111 H48        -1.0320    0.3230   -0.2570 h1        1 MOL     -0.020208
    112 H49        -1.9660   -1.4400    1.8540 hc        1 MOL      0.137965
    113 H50        -0.2880   -0.6010    1.9670 hc        1 MOL      0.137965
    114 N11        -3.9790    0.6760   -0.4150 n         1 MOL     -0.451384
    115 C36        -5.3180    0.4180   -0.8250 c3        1 MOL      0.043907
    116 C37        -5.9710   -0.7930   -0.0270 c         1 MOL      0.505843
    117 O19        -5.9290   -0.7730    1.2160 o         1 MOL     -0.549007
    118 C38        -6.1770    1.7120   -0.7400 c3        1 MOL     -0.117751
    119 C39        -7.6480    1.4630   -0.9660 ca        1 MOL     -0.049320
    120 C40        -8.1750    1.5650   -2.2590 ca        1 MOL     -0.097828
    121 C41        -8.5450    1.1580    0.0920 ca        1 MOL     -0.097828
    122 C42        -9.5090    1.2260   -2.4740 ca        1 MOL     -0.129092
    123 C43        -9.8800    0.8510   -0.1210 ca        1 MOL     -0.129092
    124 C44       -10.3320    0.7700   -1.4660 ca        1 MOL     -0.079010
    125 H51        -3.8400    1.5720    0.0420 hn        1 MOL      0.251833
    126 H52        -5.1950    0.1610   -1.8820 h1        1 MOL      0.090922
    127 H53        -5.8300    2.4900   -1.4140 hc        1 MOL      0.102297
    128 H54        -6.0640    2.2200    0.2140 hc        1 MOL      0.102297
    129 H55        -7.5220    1.8770   -3.0540 ha        1 MOL      0.106979
    130 H56        -8.1120    1.0540    1.0710 ha        1 MOL      0.106979
    131 H57        -9.8680    1.2160   -3.4870 ha        1 MOL      0.109284
    132 H58       -10.5820    0.7440    0.6990 ha        1 MOL      0.109284
    133 H59       -11.3670    0.5820   -1.7240 ha        1 MOL      0.090429
    134 N12        -6.6160   -1.8050   -0.6620 n         1 MOL     -0.342789
    135 C45        -7.4120   -2.6840    0.1930 c3        1 MOL      0.385243
    136 C46        -6.5970   -3.6500    1.0960 c         1 MOL      0.069662
    137 O20        -7.2650   -4.3000    1.9510 o         1 MOL     -0.486899
    138 C47        -8.2280   -3.4230   -0.8510 c3        1 MOL     -0.157994
    139 C48        -8.2580   -2.4470   -2.1250 c3        1 MOL      0.044394
    140 C49        -6.8260   -1.9820   -2.0560 c3        1 MOL     -0.071959
    141 H60        -8.0320   -2.1380    0.8990 h1        1 MOL      0.046143
    142 H61        -7.7660   -4.3800   -1.0850 hc        1 MOL      0.047877
    143 H62        -9.2100   -3.5470   -0.3940 hc        1 MOL      0.047877
    144 H63        -8.5870   -2.9780   -3.0280 hc        1 MOL      0.007877
    145 H64        -8.9570   -1.6630   -1.8440 hc        1 MOL      0.007877
    146 H65        -6.1390   -2.6590   -2.5730 h1        1 MOL      0.063505
    147 H66        -6.8240   -1.0170   -2.5650 h1        1 MOL      0.063505
    148 N13        -5.2690   -3.8620    0.9670 n         1 MOL     -0.025305
    149 C50        -4.5290   -4.8920    1.7890 c3        1 MOL     -0.283474
    150 C51        -4.5240   -4.5300    3.2520 c         1 MOL      0.550189
    151 O21        -4.6210   -5.4300    4.1270 o         1 MOL     -0.554393
    152 C52        -3.0860   -5.0820    1.2410 c3        1 MOL      0.237729
    153 C53        -3.0390   -5.7010   -0.1500 c3        1 MOL     -0.059777
    154 C54        -1.5850   -5.6980   -0.5880 c         1 MOL      0.597631
    155 O22        -0.7190   -6.2650    0.0580 o         1 MOL     -0.712598
    156 O23        -1.2710   -5.0390   -1.6320 o         1 MOL     -0.712598
    157 H67        -4.7910   -3.2930    0.2780 hn        1 MOL      0.242468
    158 H68        -5.0910   -5.8240    1.6990 h1        1 MOL      0.138849
    159 H69        -2.5430   -5.7260    1.9300 hc        1 MOL     -0.039120
    160 H70        -2.6400   -4.0890    1.2290 hc        1 MOL     -0.039120
    161 H71        -3.6020   -5.0490   -0.8330 hc        1 MOL     -0.017274
    162 H72        -3.4570   -6.7070   -0.1580 hc        1 MOL     -0.017274
    163 N14        -4.3810   -3.2220    3.5720 n         1 MOL     -0.218981
    164 C55        -4.1890   -2.6550    4.9100 c3        1 MOL     -0.431323
    165 H73        -3.5160   -3.2940    5.4820 h1        1 MOL      0.147772
    166 H74        -3.7570   -1.6580    4.8250 h1        1 MOL      0.147772
    167 H75        -5.1510   -2.5930    5.4200 h1        1 MOL      0.147772
    168 H76        -4.3900   -2.5780    2.7920 hn        1 MOL      0.269667
    169 Ca1         1.1110   -4.4560   -0.9530 Ca        1 MOL      1.818939
    170 O24         0.9980   -4.2000   -3.8480 oh        1 MOL     -0.854532
    171 H77         1.7070   -4.5760   -4.3870 ho        1 MOL      0.413001
    172 H78         0.5780   -3.5580   -4.4230 ho        1 MOL      0.413001
    173 O25         1.9340   -6.7660   -2.3840 oh        1 MOL     -0.854532
    174 H79         1.5850   -7.6270   -2.6150 ho        1 MOL      0.413001
    175 H80         2.4080   -6.4830   -3.1680 ho        1 MOL      0.413001
    176 O26         2.5510   -5.4830    1.0410 oh        1 MOL     -0.854532
    177 H81         3.0160   -5.2520    1.8360 ho        1 MOL      0.413001
    178 H82         2.4950   -6.4420    1.0590 ho        1 MOL      0.413001
@<TRIPOS>BOND
     1    1    2 1   
     2    1    4 1   
     3    1    5 1   
     4    1    6 1   
     5    2    3 2   
     6    2    7 1   
     7    7    8 1   
     8    7   15 1   
     9    8    9 1   
    10    8   11 1   
    11    8   16 1   
    12    9   10 2   
    13    9   19 1   
    14   11   12 1   
    15   11   17 1   
    16   11   18 1   
    17   12   13 1   
    18   12   14 1   
    19   19   20 1   
    20   19   24 1   
    21   20   21 1   
    22   20   23 1   
    23   20   25 1   
    24   21   22 2   
    25   21   29 1   
    26   23   26 1   
    27   23   27 1   
    28   23   28 1   
    29   29   30 1   
    30   29   37 1   
    31   30   31 1   
    32   30   33 1   
    33   30   38 1   
    34   31   32 2   
    35   31   41 1   
    36   33   34 1   
    37   33   39 1   
    38   33   40 1   
    39   34   35 1   
    40   34   36 1   
    41   41   42 1   
    42   41   45 1   
    43   42   43 1   
    44   42   46 1   
    45   42   47 1   
    46   43   44 2   
    47   43   48 1   
    48   48   49 1   
    49   48   56 1   
    50   49   50 1   
    51   49   52 1   
    52   49   57 1   
    53   50   51 2   
    54   50   62 1   
    55   52   53 1   
    56   52   58 1   
    57   52   59 1   
    58   53   54 1   
    59   53   55 2   
    60   54   60 1   
    61   54   61 1   
    62   62   63 1   
    63   62   66 1   
    64   63   64 1   
    65   63   67 1   
    66   63   68 1   
    67   64   65 2   
    68   64   69 1   
    69   69   70 1   
    70   69   76 1   
    71   70   71 1   
    72   70   73 1   
    73   70   77 1   
    74   71   72 2   
    75   71   83 1   
    76   73   74 1   
    77   73   75 1   
    78   73   78 1   
    79   74   80 1   
    80   74   81 1   
    81   74   82 1   
    82   75   79 1   
    83   83   84 1   
    84   83   91 1   
    85   84   85 1   
    86   84   87 1   
    87   84   92 1   
    88   85   86 2   
    89   85  102 1   
    90   87   88 1   
    91   87   89 1   
    92   87   93 1   
    93   88   90 1   
    94   88   94 1   
    95   88   95 1   
    96   89   96 1   
    97   89   97 1   
    98   89   98 1   
    99   90   99 1   
   100   90  100 1   
   101   90  101 1   
   102  102  103 1   
   103  102  110 1   
   104  103  104 1   
   105  103  106 1   
   106  103  111 1   
   107  104  105 2   
   108  104  114 1   
   109  106  107 1   
   110  106  112 1   
   111  106  113 1   
   112  107  108 1   
   113  107  109 1   
   114  114  115 1   
   115  114  125 1   
   116  115  116 1   
   117  115  118 1   
   118  115  126 1   
   119  116  117 2   
   120  116  134 1   
   121  118  119 1   
   122  118  127 1   
   123  118  128 1   
   124  119  120 ar  
   125  119  121 ar  
   126  120  122 ar  
   127  120  129 1   
   128  121  123 ar  
   129  121  130 1   
   130  122  124 ar  
   131  122  131 1   
   132  123  124 ar  
   133  123  132 1   
   134  124  133 1   
   135  134  135 1   
   136  134  140 1   
   137  135  136 1   
   138  135  138 1   
   139  135  141 1   
   140  136  137 2   
   141  136  148 1   
   142  138  139 1   
   143  138  142 1   
   144  138  143 1   
   145  139  140 1   
   146  139  144 1   
   147  139  145 1   
   148  140  146 1   
   149  140  147 1   
   150  148  149 1   
   151  148  157 1   
   152  149  150 1   
   153  149  152 1   
   154  149  158 1   
   155  150  151 2   
   156  150  163 1   
   157  152  153 1   
   158  152  159 1   
   159  152  160 1   
   160  153  154 1   
   161  153  161 1   
   162  153  162 1   
   163  154  155 1   
   164  154  156 1   
   165  163  164 1   
   166  163  168 1   
   167  164  165 1   
   168  164  166 1   
   169  164  167 1   
   170  170  171 1   
   171  170  172 1   
   172  173  174 1   
   173  173  175 1   
   174  176  177 1   
   175  176  178 1   
@<TRIPOS>SUBSTRUCTURE
     1 MOL         1 TEMP              0 ****  ****    0 ROOT
