@<TRIPOS>MOLECULE
MOL
  185   180     1     0     0
SMALL
resp


@<TRIPOS>ATOM
      1 C1         -5.6340    1.2150   -4.0990 c3        1 MOL     -0.518652
      2 C2         -6.4150    1.1110   -2.7230 c         1 MOL      0.740537
      3 O1         -5.7920    0.9530   -1.6870 o         1 MOL     -0.551853
      4 H1         -5.3670    0.2150   -4.4410 hc        1 MOL      0.140846
      5 H2         -6.2710    1.6950   -4.8430 hc        1 MOL      0.140846
      6 H3         -4.7280    1.8050   -3.9590 hc        1 MOL      0.140846
      7 N1         -7.7400    1.3450   -2.8030 n         1 MOL     -0.703689
      8 C3         -8.6030    1.6580   -1.6590 c3        1 MOL      0.126190
      9 C4         -8.5900    0.5590   -0.5520 c         1 MOL      0.437770
     10 O2         -9.0360    0.8830    0.5650 o         1 MOL     -0.532601
     11 C5         -8.3610    2.9900   -1.0620 c3        1 MOL     -0.175176
     12 C6         -8.1120    4.1780   -1.9300 c         1 MOL      0.747897
     13 O3         -7.7550    5.2170   -1.3680 o         1 MOL     -0.683185
     14 O4         -8.2850    4.1820   -3.1660 o         1 MOL     -0.683185
     15 H4         -8.1100    1.6230   -3.6930 hn        1 MOL      0.353446
     16 H5         -9.6150    1.6610   -2.0750 h1        1 MOL      0.068310
     17 H6         -7.5690    2.9220   -0.3150 hc        1 MOL      0.053939
     18 H7         -9.2560    3.1980   -0.4740 hc        1 MOL      0.053939
     19 N2         -8.1470   -0.6400   -0.7980 n         1 MOL     -0.267725
     20 C7         -8.0080   -1.8060    0.1410 c3        1 MOL      0.000113
     21 C8         -6.5510   -2.2850    0.4170 c         1 MOL      0.647413
     22 O5         -6.2670   -3.5290    0.5040 o         1 MOL     -0.599487
     23 C9         -8.9160   -3.0410   -0.3380 c3        1 MOL     -0.111233
     24 C10       -10.3910   -2.5710   -0.3940 c3        1 MOL      0.104488
     25 C11       -11.1720   -3.5530   -1.2140 c3        1 MOL     -0.130336
     26 C12       -12.6870   -3.2300   -1.2790 c3        1 MOL      0.203241
     27 N3        -13.4490   -4.4850   -1.4920 n4        1 MOL     -0.477942
     28 H8         -7.7560   -0.7480   -1.7220 hn        1 MOL      0.190044
     29 H9         -8.3780   -1.5370    1.1300 h1        1 MOL      0.080369
     30 H10        -8.8590   -3.8750    0.3540 hc        1 MOL      0.059843
     31 H11        -8.5690   -3.4650   -1.2730 hc        1 MOL      0.059843
     32 H12       -10.5060   -1.5730   -0.8160 hc        1 MOL      0.001823
     33 H13       -10.7550   -2.5660    0.6350 hc        1 MOL      0.001823
     34 H14       -10.9040   -4.5080   -0.7340 hc        1 MOL      0.035724
     35 H15       -10.7670   -3.5240   -2.2230 hc        1 MOL      0.035724
     36 H16       -12.8720   -2.5070   -2.0640 hx        1 MOL      0.049117
     37 H17       -12.9940   -2.6960   -0.3740 hx        1 MOL      0.049117
     38 H18       -13.1700   -4.9370   -2.3590 hn        1 MOL      0.330624
     39 H19       -13.3300   -5.0980   -0.7020 hn        1 MOL      0.330624
     40 H20       -14.4430   -4.3260   -1.5570 hn        1 MOL      0.330624
     41 N4         -5.5350   -1.3980    0.4530 n         1 MOL     -0.571427
     42 C13        -4.0570   -1.6470    0.5880 c3        1 MOL     -0.033982
     43 C14        -3.7320   -2.1890    1.9590 c         1 MOL      0.593585
     44 O6         -3.9900   -1.5040    2.9700 o         1 MOL     -0.507265
     45 C15        -3.2600   -0.2790    0.2600 c3        1 MOL     -0.074987
     46 C16        -1.7940   -0.7320    0.1820 c         1 MOL      0.600139
     47 O7         -0.9880   -0.7130    1.1390 o         1 MOL     -0.701051
     48 O8         -1.4400   -1.1410   -0.9000 o         1 MOL     -0.701051
     49 H21        -5.7860   -0.5050    0.0480 hn        1 MOL      0.333757
     50 H22        -3.8200   -2.4470   -0.1130 h1        1 MOL      0.088639
     51 H23        -3.3630    0.4670    1.0440 hc        1 MOL      0.112302
     52 H24        -3.6350    0.1460   -0.6740 hc        1 MOL      0.112302
     53 N5         -3.0270   -3.3270    2.0670 n         1 MOL     -0.334674
     54 C17        -2.6590   -3.9370    3.2990 c3        1 MOL      0.024076
     55 C18        -1.9610   -3.0250    4.2750 c         1 MOL      0.492671
     56 O9         -1.9850   -3.2480    5.4850 o         1 MOL     -0.551462
     57 H25        -2.7010   -3.7990    1.2390 hn        1 MOL      0.266398
     58 H26        -1.9660   -4.7180    2.9880 h1        1 MOL      0.055309
     59 H27        -3.4890   -4.4260    3.8040 h1        1 MOL      0.055309
     60 N6         -1.2090   -1.9760    3.7950 n         1 MOL     -0.232596
     61 C19        -0.4720   -0.9740    4.6520 c3        1 MOL      0.105106
     62 C20        -0.9220    0.4810    4.3580 c         1 MOL      0.373592
     63 O10        -0.2510    1.3610    4.8650 o         1 MOL     -0.516178
     64 C21         1.0740   -1.1520    4.6440 c3        1 MOL     -0.408933
     65 C22         1.7680   -0.7700    3.3330 c         1 MOL      0.941854
     66 N7          2.3800    0.3670    3.2000 n         1 MOL     -0.836266
     67 O11         1.7060   -1.5140    2.4370 o         1 MOL     -0.772724
     68 H28        -1.1160   -1.8160    2.7970 hn        1 MOL      0.045745
     69 H29        -0.8610   -1.2450    5.6420 h1        1 MOL      0.121068
     70 H30         1.2590   -2.1400    5.0880 hc        1 MOL      0.111957
     71 H31         1.4520   -0.5230    5.4480 hc        1 MOL      0.111957
     72 H32         2.3960    1.1150    3.8750 hn        1 MOL      0.376618
     73 H33         2.6140    0.6560    2.2580 hn        1 MOL      0.376618
     74 N8         -1.9530    0.7340    3.5380 n         1 MOL     -0.076938
     75 C23        -2.3170    2.0820    3.2100 c3        1 MOL     -0.311033
     76 C24        -1.4180    2.8120    2.2170 c         1 MOL      0.542861
     77 O12        -1.3640    4.0180    2.2290 o         1 MOL     -0.531780
     78 H34        -2.3230    0.0000    2.9440 hn        1 MOL      0.039825
     79 H35        -2.2750    2.6040    4.1670 h1        1 MOL      0.156862
     80 H36        -3.3460    2.2120    2.8760 h1        1 MOL      0.156862
     81 N9         -0.6010    2.1300    1.4490 n         1 MOL     -0.301972
     82 C25         0.2600    2.7320    0.4320 c3        1 MOL      0.119691
     83 C26         1.6550    2.0880    0.2390 c         1 MOL      0.404879
     84 O13         1.7520    0.8310    0.3090 o         1 MOL     -0.451008
     85 C27        -0.4600    2.8490   -0.9900 c3        1 MOL     -0.040837
     86 C28        -1.7190    3.7880   -0.9630 ca        1 MOL      0.037973
     87 C29        -1.5590    5.1720   -0.7620 ca        1 MOL     -0.245999
     88 C30        -2.9990    3.3070   -1.0980 ca        1 MOL     -0.245999
     89 C31        -2.6330    6.0720   -0.6040 ca        1 MOL     -0.119174
     90 C32        -4.0900    4.1690   -0.8360 ca        1 MOL     -0.119174
     91 C33        -3.9260    5.5470   -0.7160 ca        1 MOL      0.266947
     92 O14        -5.0220    6.4010   -0.7590 oh        1 MOL     -0.487143
     93 H37        -0.6250    1.1190    1.4430 hn        1 MOL      0.149477
     94 H38         0.3420    3.7630    0.7770 h1        1 MOL      0.050799
     95 H39        -0.8510    1.8530   -1.1990 hc        1 MOL      0.029873
     96 H40         0.2580    3.0900   -1.7710 hc        1 MOL      0.029873
     97 H41        -0.5640    5.5460   -0.6070 ha        1 MOL      0.126646
     98 H42        -3.1230    2.2700   -1.3450 ha        1 MOL      0.126646
     99 H43        -2.5000    7.1290   -0.4540 ha        1 MOL      0.121787
    100 H44        -5.1010    3.8100   -0.8630 ha        1 MOL      0.121787
    101 H45        -5.7920    5.8540   -0.9220 ho        1 MOL      0.364769
    102 N10         2.6020    2.9270   -0.1980 n         1 MOL     -0.547051
    103 C34         3.8510    2.5310   -0.7690 c3        1 MOL      0.365459
    104 C35         4.8720    2.1040    0.3370 c         1 MOL      0.260464
    105 O15         5.0130    0.9180    0.5410 o         1 MOL     -0.481458
    106 C36         4.2430    3.6620   -1.7910 c3        1 MOL      0.076196
    107 C37         3.2440    3.6250   -3.0550 c3        1 MOL      0.023409
    108 C38         5.6630    3.4600   -2.3420 c3        1 MOL     -0.499723
    109 C39         3.1220    2.3690   -3.9150 c3        1 MOL     -0.077075
    110 H46         2.4080    3.9170   -0.1700 hn        1 MOL      0.283091
    111 H47         3.7040    1.6340   -1.3800 h1        1 MOL     -0.043556
    112 H48         4.2420    4.6360   -1.3160 hc        1 MOL     -0.000161
    113 H49         3.6170    4.4210   -3.6980 hc        1 MOL      0.002721
    114 H50         2.3350    4.0560   -2.6440 hc        1 MOL      0.002721
    115 H51         6.3730    3.7760   -1.5830 hc        1 MOL      0.143486
    116 H52         5.8170    2.4480   -2.7230 hc        1 MOL      0.143486
    117 H53         5.7460    4.0740   -3.2300 hc        1 MOL      0.143486
    118 H54         2.2320    2.4800   -4.5300 hc        1 MOL      0.033137
    119 H55         3.9940    2.1480   -4.5360 hc        1 MOL      0.033137
    120 H56         2.7920    1.4890   -3.3610 hc        1 MOL      0.033137
    121 N11         5.4560    3.1020    1.0470 n         1 MOL     -0.182273
    122 C40         6.3480    2.7570    2.1570 c3        1 MOL      0.155890
    123 C41         7.7570    2.3720    1.6630 c         1 MOL      0.245008
    124 O16         8.5330    1.7450    2.3960 o         1 MOL     -0.513327
    125 C42         6.3320    3.8780    3.1500 c3        1 MOL      0.163026
    126 O17         5.1800    4.0130    3.9580 oh        1 MOL     -0.614869
    127 H57         5.0500    4.0210    1.0260 hn        1 MOL      0.215801
    128 H58         6.0410    1.8480    2.6920 h1        1 MOL      0.104269
    129 H59         6.5410    4.7590    2.5390 h1        1 MOL      0.004997
    130 H60         7.2350    3.7350    3.7540 h1        1 MOL      0.004997
    131 H61         5.2380    4.8490    4.4080 ho        1 MOL      0.421194
    132 N12         7.9810    2.4780    0.4030 n         1 MOL     -0.052016
    133 C43         9.0150    1.8910   -0.4740 c3        1 MOL      0.246964
    134 C44         9.1940    0.3980   -0.6180 c         1 MOL      0.520818
    135 O18        10.3050   -0.0010   -0.9740 o         1 MOL     -0.535305
    136 C45        10.2570    2.7740   -0.5570 c3        1 MOL     -0.307454
    137 H62         7.2320    3.0140   -0.0190 hn        1 MOL     -0.003800
    138 H63         8.5730    2.0420   -1.4640 h1        1 MOL      0.004369
    139 H64        10.7480    2.6870   -1.5230 hc        1 MOL      0.083666
    140 H65        10.0200    3.7980   -0.2500 hc        1 MOL      0.083666
    141 H66        10.9650    2.4060    0.1730 hc        1 MOL      0.083666
    142 N13         8.2650   -0.4270   -0.1180 n         1 MOL     -0.669739
    143 C46         8.2870   -1.9650   -0.1610 c3        1 MOL      0.640711
    144 C47         7.2150   -2.3970   -1.1310 c         1 MOL      0.334997
    145 O19         6.3920   -1.5440   -1.5630 o         1 MOL     -0.518360
    146 C48         8.0760   -2.6020    1.2040 c3        1 MOL     -0.271670
    147 H67         7.5110   -0.0070    0.4000 hn        1 MOL      0.296189
    148 H68         9.2260   -2.3700   -0.5580 h1        1 MOL     -0.054675
    149 H69         7.9640   -3.6900    1.1250 hc        1 MOL      0.068992
    150 H70         9.0370   -2.5920    1.7260 hc        1 MOL      0.068992
    151 H71         7.1970   -2.2300    1.7190 hc        1 MOL      0.068992
    152 N14         7.2020   -3.7000   -1.5130 n         1 MOL     -0.443037
    153 C49         6.2990   -4.1740   -2.5830 c3        1 MOL     -0.135343
    154 C50         6.4400   -3.4390   -3.9920 c         1 MOL      0.417939
    155 O20         5.5580   -3.5790   -4.8630 o         1 MOL     -0.501123
    156 C51         4.8460   -4.4320   -2.0820 c3        1 MOL      0.089150
    157 C52         4.6880   -5.0040   -0.6560 c3        1 MOL     -0.104143
    158 C53         3.1670   -5.1270   -0.3540 c         1 MOL      0.593789
    159 O21         2.5550   -6.1970   -0.5670 o         1 MOL     -0.678140
    160 O22         2.5520   -4.1330    0.0790 o         1 MOL     -0.678140
    161 H72         7.8430   -4.3340   -1.0440 hn        1 MOL      0.296195
    162 H73         6.6200   -5.2040   -2.7650 h1        1 MOL      0.116856
    163 H74         4.3440   -5.0270   -2.8480 hc        1 MOL      0.023207
    164 H75         4.2420   -3.5250   -2.0980 hc        1 MOL      0.023207
    165 H76         5.2390   -4.4460    0.0960 hc        1 MOL      0.017360
    166 H77         5.2030   -5.9600   -0.6330 hc        1 MOL      0.017360
    167 N15         7.5810   -2.8140   -4.2950 n         1 MOL     -0.179195
    168 C54         7.7210   -2.0640   -5.5220 c3        1 MOL     -0.185081
    169 H78         8.0970   -2.7190   -6.3070 h1        1 MOL      0.096569
    170 H79         6.7500   -1.6650   -5.8160 h1        1 MOL      0.096569
    171 H80         8.4210   -1.2420   -5.3680 h1        1 MOL      0.096569
    172 H81         8.2950   -2.8830   -3.5870 hn        1 MOL      0.198415
    173 Ca1         1.0230   -1.8700   -0.1330 Ca        1 MOL      1.805611
    174 O23         0.8110   -3.4990   -2.3570 oh        1 MOL     -0.862587
    175 H82         0.4630   -4.3700   -2.1740 ho        1 MOL      0.428021
    176 H83         1.0460   -3.5150   -3.2810 ho        1 MOL      0.428021
    177 O24         3.6980   -1.3450   -0.0590 oh        1 MOL     -0.862587
    178 H84         4.1450   -0.6830    0.4580 ho        1 MOL      0.428021
    179 H85         4.3400   -1.6050   -0.7270 ho        1 MOL      0.428021
    180 O25         0.2980   -4.1750    1.5170 oh        1 MOL     -0.862587
    181 H86         0.5860   -4.2880    2.4130 ho        1 MOL      0.428021
    182 H87         0.9710   -4.6090    0.9860 ho        1 MOL      0.428021
    183 O26         1.2190   -0.5160   -2.5230 oh        1 MOL     -0.862587
    184 H88         0.6160    0.1530   -2.8670 ho        1 MOL      0.428021
    185 H89         1.9480   -0.5110   -3.1380 ho        1 MOL      0.428021
@<TRIPOS>BOND
     1    1    2 1   
     2    1    4 1   
     3    1    5 1   
     4    1    6 1   
     5    2    3 2   
     6    2    7 1   
     7    7    8 1   
     8    7   15 1   
     9    8    9 1   
    10    8   11 1   
    11    8   16 1   
    12    9   10 2   
    13    9   19 1   
    14   11   12 1   
    15   11   17 1   
    16   11   18 1   
    17   12   13 1   
    18   12   14 1   
    19   19   20 1   
    20   19   28 1   
    21   20   21 1   
    22   20   23 1   
    23   20   29 1   
    24   21   22 2   
    25   21   41 1   
    26   23   24 1   
    27   23   30 1   
    28   23   31 1   
    29   24   25 1   
    30   24   32 1   
    31   24   33 1   
    32   25   26 1   
    33   25   34 1   
    34   25   35 1   
    35   26   27 1   
    36   26   36 1   
    37   26   37 1   
    38   27   38 1   
    39   27   39 1   
    40   27   40 1   
    41   41   42 1   
    42   41   49 1   
    43   42   43 1   
    44   42   45 1   
    45   42   50 1   
    46   43   44 2   
    47   43   53 1   
    48   45   46 1   
    49   45   51 1   
    50   45   52 1   
    51   46   47 1   
    52   46   48 1   
    53   53   54 1   
    54   53   57 1   
    55   54   55 1   
    56   54   58 1   
    57   54   59 1   
    58   55   56 2   
    59   55   60 1   
    60   60   61 1   
    61   60   68 1   
    62   61   62 1   
    63   61   64 1   
    64   61   69 1   
    65   62   63 2   
    66   62   74 1   
    67   64   65 1   
    68   64   70 1   
    69   64   71 1   
    70   65   66 1   
    71   65   67 2   
    72   66   72 1   
    73   66   73 1   
    74   74   75 1   
    75   74   78 1   
    76   75   76 1   
    77   75   79 1   
    78   75   80 1   
    79   76   77 2   
    80   76   81 1   
    81   81   82 1   
    82   81   93 1   
    83   82   83 1   
    84   82   85 1   
    85   82   94 1   
    86   83   84 2   
    87   83  102 1   
    88   85   86 1   
    89   85   95 1   
    90   85   96 1   
    91   86   87 ar  
    92   86   88 ar  
    93   87   89 ar  
    94   87   97 1   
    95   88   90 ar  
    96   88   98 1   
    97   89   91 ar  
    98   89   99 1   
    99   90   91 ar  
   100   90  100 1   
   101   91   92 1   
   102   92  101 1   
   103  102  103 1   
   104  102  110 1   
   105  103  104 1   
   106  103  106 1   
   107  103  111 1   
   108  104  105 2   
   109  104  121 1   
   110  106  107 1   
   111  106  108 1   
   112  106  112 1   
   113  107  109 1   
   114  107  113 1   
   115  107  114 1   
   116  108  115 1   
   117  108  116 1   
   118  108  117 1   
   119  109  118 1   
   120  109  119 1   
   121  109  120 1   
   122  121  122 1   
   123  121  127 1   
   124  122  123 1   
   125  122  125 1   
   126  122  128 1   
   127  123  124 2   
   128  123  132 1   
   129  125  126 1   
   130  125  129 1   
   131  125  130 1   
   132  126  131 1   
   133  132  133 1   
   134  132  137 1   
   135  133  134 1   
   136  133  136 1   
   137  133  138 1   
   138  134  135 2   
   139  134  142 1   
   140  136  139 1   
   141  136  140 1   
   142  136  141 1   
   143  142  143 1   
   144  142  147 1   
   145  143  144 1   
   146  143  146 1   
   147  143  148 1   
   148  144  145 2   
   149  144  152 1   
   150  146  149 1   
   151  146  150 1   
   152  146  151 1   
   153  152  153 1   
   154  152  161 1   
   155  153  154 1   
   156  153  156 1   
   157  153  162 1   
   158  154  155 2   
   159  154  167 1   
   160  156  157 1   
   161  156  163 1   
   162  156  164 1   
   163  157  158 1   
   164  157  165 1   
   165  157  166 1   
   166  158  159 1   
   167  158  160 1   
   168  167  168 1   
   169  167  172 1   
   170  168  169 1   
   171  168  170 1   
   172  168  171 1   
   173  174  175 1   
   174  174  176 1   
   175  177  178 1   
   176  177  179 1   
   177  180  181 1   
   178  180  182 1   
   179  183  184 1   
   180  183  185 1   
@<TRIPOS>SUBSTRUCTURE
     1 MOL         1 TEMP              0 ****  ****    0 ROOT
