@<TRIPOS>MOLECULE
MOL
  192   187     1     0     0
SMALL
resp


@<TRIPOS>ATOM
      1 C1          3.9700    3.8780   -3.6180 c3        1 MOL     -0.455629
      2 C2          4.7490    3.0740   -2.4570 c         1 MOL      0.905443
      3 O1          4.2550    2.8080   -1.3580 o         1 MOL     -0.678713
      4 H1          4.6830    4.4760   -4.1850 hc        1 MOL      0.107495
      5 H2          3.4790    3.1700   -4.2850 hc        1 MOL      0.107495
      6 H3          3.2240    4.5330   -3.1690 hc        1 MOL      0.107495
      7 N1          6.0010    2.7750   -2.8000 n         1 MOL     -0.679947
      8 C3          6.7570    1.7670   -2.0780 c3        1 MOL      0.266966
      9 C4          5.8760    0.5510   -1.7380 c         1 MOL      0.544334
     10 O2          5.6760    0.2430   -0.5890 o         1 MOL     -0.630725
     11 C5          7.7300    2.2500   -1.0180 c3        1 MOL     -0.145993
     12 C6          7.1750    3.3920   -0.0980 c         1 MOL      0.637888
     13 O3          6.5030    3.0840    0.9640 o         1 MOL     -0.709721
     14 O4          7.1880    4.5660   -0.4700 o         1 MOL     -0.709721
     15 H4          6.4950    3.3230   -3.4850 hn        1 MOL      0.321145
     16 H5          7.3880    1.2570   -2.8060 h1        1 MOL     -0.010274
     17 H6          8.6960    2.5120   -1.4560 hc        1 MOL      0.036954
     18 H7          8.1430    1.4270   -0.4530 hc        1 MOL      0.036954
     19 N2          5.2240    0.0600   -2.7800 n         1 MOL     -0.350370
     20 C7          4.4520   -1.1170   -2.9780 c3        1 MOL      0.118234
     21 C8          5.0630   -2.4570   -2.3950 c         1 MOL      0.242359
     22 O5          5.1170   -3.5070   -3.0660 o         1 MOL     -0.515438
     23 C9          2.9370   -0.9370   -2.6960 c3        1 MOL      0.372440
     24 C10         2.1280   -2.1800   -3.0820 c3        1 MOL      0.024060
     25 C11         2.4000    0.2840   -3.4290 c3        1 MOL     -0.128130
     26 C12         2.2280   -2.7040   -4.5270 c3        1 MOL     -0.543091
     27 H8          5.3220    0.6260   -3.6150 hn        1 MOL      0.170480
     28 H9          4.5220   -1.2720   -4.0540 h1        1 MOL      0.010960
     29 H10         2.8900   -0.6960   -1.6410 hc        1 MOL     -0.221711
     30 H11         1.0860   -2.0460   -2.7950 hc        1 MOL      0.077870
     31 H12         2.4960   -3.0500   -2.5460 hc        1 MOL      0.077870
     32 H13         2.8010    1.2520   -3.1100 hc        1 MOL      0.004005
     33 H14         2.5590    0.2170   -4.5070 hc        1 MOL      0.004005
     34 H15         1.3250    0.3760   -3.2850 hc        1 MOL      0.004005
     35 H16         1.8070   -1.9710   -5.2130 hc        1 MOL      0.120718
     36 H17         3.2510   -3.0910   -4.6100 hc        1 MOL      0.120718
     37 H18         1.5970   -3.5880   -4.6420 hc        1 MOL      0.120718
     38 N3          5.5160   -2.4270   -1.1390 n         1 MOL      0.051606
     39 C13         6.1790   -3.6030   -0.5390 c3        1 MOL     -0.028872
     40 C14         5.3050   -4.8270   -0.2870 c         1 MOL      0.545608
     41 O6          5.7380   -5.9530   -0.5070 o         1 MOL     -0.602557
     42 C15         6.8690   -3.1110    0.7760 c3        1 MOL     -0.236836
     43 C16         7.6250   -1.8130    0.7280 c         1 MOL      0.791061
     44 O7          7.5570   -0.9900    1.6940 o         1 MOL     -0.711962
     45 O8          8.4620   -1.6750   -0.2050 o         1 MOL     -0.711962
     46 H19         5.4690   -1.5480   -0.6560 hn        1 MOL      0.056362
     47 H20         6.9560   -3.7960   -1.2840 h1        1 MOL      0.059380
     48 H21         7.3210   -4.0000    1.2120 hc        1 MOL      0.068462
     49 H22         5.9810   -2.9890    1.4060 hc        1 MOL      0.068462
     50 N4          4.0700   -4.7620    0.1540 n         1 MOL     -0.429145
     51 C17         3.2520   -3.5930    0.5380 c3        1 MOL      0.199281
     52 C18         2.2630   -4.0860    1.5770 c         1 MOL      0.478587
     53 O9          1.8400   -5.2520    1.5330 o         1 MOL     -0.593904
     54 H23         3.5770   -5.6390    0.2350 hn        1 MOL      0.272638
     55 H24         2.7520   -2.9850   -0.2210 h1        1 MOL     -0.049515
     56 H25         3.8950   -2.9310    1.1110 h1        1 MOL     -0.049515
     57 N5          1.7950   -3.2950    2.5180 n         1 MOL     -0.259536
     58 C19         2.0960   -1.8670    2.7580 c3        1 MOL      0.281045
     59 C20         2.1490   -1.0280    1.4490 c         1 MOL      0.418780
     60 O10         3.2540   -0.7950    0.9450 o         1 MOL     -0.357974
     61 C21         3.3950   -1.6630    3.6100 c3        1 MOL     -0.521533
     62 C22         3.4340   -2.5000    4.8960 c         1 MOL      0.783074
     63 O11         4.5030   -2.4830    5.5730 o         1 MOL     -0.742865
     64 O12         2.4630   -3.2080    5.2550 o         1 MOL     -0.742865
     65 H26         1.0910   -3.6950    3.1290 hn        1 MOL      0.209612
     66 H27         1.2420   -1.4820    3.3040 h1        1 MOL     -0.000341
     67 H28         3.5760   -0.6260    3.9140 hc        1 MOL      0.107304
     68 H29         4.2960   -1.9170    3.0390 hc        1 MOL      0.107304
     69 N6          1.0310   -0.7390    0.7270 n         1 MOL     -0.262860
     70 C23        -0.3480   -1.2090    0.9440 c3        1 MOL     -0.209487
     71 C24        -0.6670   -2.5330    0.2200 c         1 MOL      0.300553
     72 O13         0.1100   -3.0870   -0.6120 o         1 MOL     -0.450834
     73 H30         1.2310   -0.1730   -0.0900 hn        1 MOL      0.255314
     74 H31        -1.0120   -0.4180    0.6160 h1        1 MOL      0.091026
     75 H32        -0.5370   -1.4530    1.9870 h1        1 MOL      0.091026
     76 N7         -1.8920   -3.0100    0.3970 n         1 MOL     -0.196642
     77 C25        -2.3390   -4.1780   -0.3830 c3        1 MOL     -0.184336
     78 C26        -2.8640   -3.9760   -1.8440 c         1 MOL      0.479252
     79 O14        -2.8430   -4.9550   -2.6150 o         1 MOL     -0.508490
     80 C27        -3.4920   -4.7880    0.4350 c3        1 MOL      0.261374
     81 C28        -3.1060   -5.3190    1.8490 c3        1 MOL     -0.307355
     82 C29        -4.2720   -6.0580    2.5150 c         1 MOL      0.641623
     83 N8         -4.1680   -6.3160    3.8100 n         1 MOL     -0.790913
     84 O15        -5.3030   -6.5620    1.9710 o         1 MOL     -0.555134
     85 H33        -2.5910   -2.5130    0.9200 hn        1 MOL      0.249443
     86 H34        -1.5020   -4.8780   -0.4110 h1        1 MOL      0.160778
     87 H35        -3.9540   -5.6130   -0.1150 hc        1 MOL     -0.027523
     88 H36        -4.2720   -4.0230    0.4940 hc        1 MOL     -0.027523
     89 H37        -2.7030   -4.4850    2.4250 hc        1 MOL      0.084386
     90 H38        -2.2670   -5.9820    1.6860 hc        1 MOL      0.084386
     91 H39        -3.2910   -6.0370    4.2280 hn        1 MOL      0.367602
     92 H40        -4.9500   -6.7690    4.2590 hn        1 MOL      0.367602
     93 N9         -3.2250   -2.7090   -2.1670 n         1 MOL     -0.268992
     94 C30        -3.7920   -2.4060   -3.5340 c3        1 MOL     -0.022449
     95 C31        -5.0980   -1.7090   -3.5240 c         1 MOL      0.530753
     96 O16        -5.9020   -1.7750   -4.4660 o         1 MOL     -0.581347
     97 C32        -2.7290   -1.5190   -4.2490 c3        1 MOL      0.049456
     98 C33        -1.6330   -2.3870   -4.8660 c3        1 MOL     -0.262406
     99 C34        -2.0700   -0.4550   -3.3260 c3        1 MOL     -0.262406
    100 H41        -3.0910   -1.9830   -1.4820 hn        1 MOL      0.180940
    101 H42        -3.9370   -3.3640   -4.0440 h1        1 MOL      0.124281
    102 H43        -3.1440   -0.9560   -5.0840 hc        1 MOL      0.044581
    103 H44        -1.3270   -3.1450   -4.1520 hc        1 MOL      0.075537
    104 H45        -2.0570   -2.8600   -5.7470 hc        1 MOL      0.075537
    105 H46        -0.7600   -1.7900   -5.1310 hc        1 MOL      0.075537
    106 H47        -1.4880    0.1580   -4.0130 hc        1 MOL      0.075537
    107 H48        -2.7970    0.0970   -2.7290 hc        1 MOL      0.075537
    108 H49        -1.3910   -0.9650   -2.6420 hc        1 MOL      0.075537
    109 N10        -5.4650   -1.0530   -2.4610 n         1 MOL     -0.427771
    110 C35        -6.8460   -0.6320   -2.2080 c3        1 MOL      0.107292
    111 C36        -6.9930    0.7380   -1.5190 c         1 MOL      0.449571
    112 O17        -7.9890    1.3890   -1.7430 o         1 MOL     -0.534364
    113 C37        -7.4480   -1.6890   -1.2460 c3        1 MOL     -0.415019
    114 C38        -7.4660   -3.1770   -1.6910 c         1 MOL      0.724120
    115 N11        -7.9740   -3.5200   -2.8710 n         1 MOL     -0.806691
    116 O18        -7.0150   -4.0240   -0.9350 o         1 MOL     -0.562503
    117 H50        -4.7380   -0.8680   -1.7740 hn        1 MOL      0.253265
    118 H51        -7.4300   -0.7310   -3.1250 h1        1 MOL      0.100198
    119 H52        -8.5130   -1.4790   -1.1750 hc        1 MOL      0.113074
    120 H53        -6.9060   -1.5150   -0.3190 hc        1 MOL      0.113074
    121 H54        -8.3790   -2.8290   -3.4920 hn        1 MOL      0.377946
    122 H55        -8.0110   -4.5130   -3.0670 hn        1 MOL      0.377946
    123 N12        -6.0560    1.1410   -0.6940 n         1 MOL     -0.362751
    124 C39        -6.1700    2.4570   -0.0700 c3        1 MOL      0.172970
    125 C40        -4.7840    2.9500    0.2320 c         1 MOL      0.344205
    126 O19        -3.8100    2.1890    0.2500 o         1 MOL     -0.464693
    127 C41        -7.0590    2.4780    1.1390 c3        1 MOL     -0.063668
    128 C42        -6.8610    1.5120    2.3160 ca        1 MOL      0.032927
    129 C43        -7.3510    0.2000    2.1080 ca        1 MOL     -0.182270
    130 C44        -6.0320    1.8300    3.3830 ca        1 MOL     -0.182270
    131 C45        -7.0920   -0.8030    3.0570 ca        1 MOL     -0.218264
    132 C46        -5.8280    0.8440    4.3550 ca        1 MOL     -0.218264
    133 C47        -6.3270   -0.4230    4.1750 ca        1 MOL      0.305357
    134 O20        -5.9920   -1.4760    5.0180 oh        1 MOL     -0.541318
    135 H56        -5.2180    0.6150   -0.4810 hn        1 MOL      0.275578
    136 H57        -6.4940    3.1960   -0.7950 h1        1 MOL      0.036800
    137 H58        -8.1110    2.4310    0.8580 hc        1 MOL      0.026674
    138 H59        -6.9960    3.4840    1.5560 hc        1 MOL      0.026674
    139 H60        -7.7930   -0.0210    1.1540 ha        1 MOL      0.153856
    140 H61        -5.6120    2.8100    3.5110 ha        1 MOL      0.153856
    141 H62        -7.5050   -1.7980    2.9980 ha        1 MOL      0.154126
    142 H63        -5.2380    1.0310    5.2390 ha        1 MOL      0.154126
    143 H64        -5.3660   -1.1920    5.6820 ho        1 MOL      0.395007
    144 N13        -4.6840    4.2530    0.5380 n         1 MOL     -0.409075
    145 C48        -3.5710    5.1380    0.9010 c3        1 MOL     -0.005603
    146 C49        -2.3970    5.2970   -0.1210 c         1 MOL      0.477512
    147 O21        -1.7680    6.3700   -0.2300 o         1 MOL     -0.517248
    148 C50        -3.2310    4.7280    2.3610 c3        1 MOL      0.092254
    149 C51        -2.2170    5.7190    3.0580 c3        1 MOL     -0.357600
    150 C52        -1.9850    5.3890    4.6080 c         1 MOL      0.665300
    151 O22        -2.7400    6.0070    5.4580 o         1 MOL     -0.714290
    152 O23        -1.2460    4.4160    4.9090 o         1 MOL     -0.714290
    153 H65        -5.5230    4.7800    0.3620 hn        1 MOL      0.269528
    154 H66        -3.9310    6.1610    0.9120 h1        1 MOL      0.066917
    155 H67        -2.8960    3.6900    2.3440 hc        1 MOL      0.052115
    156 H68        -4.1540    4.7940    2.9450 hc        1 MOL      0.052115
    157 H69        -2.6100    6.7180    2.9120 hc        1 MOL      0.069652
    158 H70        -1.2720    5.5700    2.5240 hc        1 MOL      0.069652
    159 N14        -2.1010    4.2730   -0.9140 n         1 MOL     -0.548530
    160 C53        -0.9220    4.3010   -1.8480 c3        1 MOL     -0.150436
    161 C54        -1.2690    4.9960   -3.2250 c         1 MOL      0.582569
    162 O24        -0.3830    5.0400   -4.0770 o         1 MOL     -0.538395
    163 C55        -0.3730    2.8740   -2.0680 c3        1 MOL     -0.036140
    164 C56        -0.2180    2.0500   -0.7750 c3        1 MOL      0.348018
    165 C57         0.7240    2.5180    0.2710 c         1 MOL      0.545674
    166 O25         1.7930    1.8840    0.4950 o         1 MOL     -0.598351
    167 O26         0.5110    3.6320    0.8380 o         1 MOL     -0.598351
    168 H71        -2.4780    3.3640   -0.6790 hn        1 MOL      0.319234
    169 H72        -0.1170    4.9180   -1.4380 h1        1 MOL      0.166846
    170 H73         0.6300    2.9140   -2.4940 hc        1 MOL      0.008108
    171 H74        -1.0020    2.3510   -2.7880 hc        1 MOL      0.008108
    172 H75         0.0700    1.0780   -1.1830 hc        1 MOL     -0.100137
    173 H76        -1.2050    1.7860   -0.3700 hc        1 MOL     -0.100137
    174 N15        -2.5700    5.3370   -3.4240 n         1 MOL     -0.327482
    175 C58        -2.9770    6.1960   -4.5200 c3        1 MOL     -0.103711
    176 H77        -2.1190    6.7720   -4.8670 h1        1 MOL      0.061441
    177 H78        -3.3570    5.5860   -5.3390 h1        1 MOL      0.061441
    178 H79        -3.7570    6.8750   -4.1790 h1        1 MOL      0.061441
    179 H80        -3.2840    5.2490   -2.7180 hn        1 MOL      0.271330
    180 Ca1         4.2170    1.8790    1.3920 Ca        1 MOL      1.685567
    181 O27         5.8780    0.4860    2.7280 oh        1 MOL     -0.854038
    182 H81         6.5340   -0.1140    2.3590 ho        1 MOL      0.414135
    183 H82         5.8690    0.2850    3.6640 ho        1 MOL      0.414135
    184 O28         4.6260    3.1880    3.7160 oh        1 MOL     -0.854038
    185 H83         5.5410    3.3300    3.9860 ho        1 MOL      0.414135
    186 H84         4.1990    4.0230    3.9010 ho        1 MOL      0.414135
    187 O29         3.1330    4.2520    1.3700 oh        1 MOL     -0.854038
    188 H85         2.3420    4.0410    0.8800 ho        1 MOL      0.414135
    189 H86         3.1020    5.2080    1.4690 ho        1 MOL      0.414135
    190 O30         2.2910    1.4860    3.5110 oh        1 MOL     -0.854038
    191 H87         1.3990    1.8310    3.5470 ho        1 MOL      0.414135
    192 H88         2.5760    1.4550    4.4260 ho        1 MOL      0.414135
@<TRIPOS>BOND
     1    1    2 1   
     2    1    4 1   
     3    1    5 1   
     4    1    6 1   
     5    2    3 2   
     6    2    7 1   
     7    7    8 1   
     8    7   15 1   
     9    8    9 1   
    10    8   11 1   
    11    8   16 1   
    12    9   10 2   
    13    9   19 1   
    14   11   12 1   
    15   11   17 1   
    16   11   18 1   
    17   12   13 1   
    18   12   14 1   
    19   19   20 1   
    20   19   27 1   
    21   20   21 1   
    22   20   23 1   
    23   20   28 1   
    24   21   22 2   
    25   21   38 1   
    26   23   24 1   
    27   23   25 1   
    28   23   29 1   
    29   24   26 1   
    30   24   30 1   
    31   24   31 1   
    32   25   32 1   
    33   25   33 1   
    34   25   34 1   
    35   26   35 1   
    36   26   36 1   
    37   26   37 1   
    38   38   39 1   
    39   38   46 1   
    40   39   40 1   
    41   39   42 1   
    42   39   47 1   
    43   40   41 2   
    44   40   50 1   
    45   42   43 1   
    46   42   48 1   
    47   42   49 1   
    48   43   44 1   
    49   43   45 1   
    50   50   51 1   
    51   50   54 1   
    52   51   52 1   
    53   51   55 1   
    54   51   56 1   
    55   52   53 2   
    56   52   57 1   
    57   57   58 1   
    58   57   65 1   
    59   58   59 1   
    60   58   61 1   
    61   58   66 1   
    62   59   60 2   
    63   59   69 1   
    64   61   62 1   
    65   61   67 1   
    66   61   68 1   
    67   62   63 1   
    68   62   64 1   
    69   69   70 1   
    70   69   73 1   
    71   70   71 1   
    72   70   74 1   
    73   70   75 1   
    74   71   72 2   
    75   71   76 1   
    76   76   77 1   
    77   76   85 1   
    78   77   78 1   
    79   77   80 1   
    80   77   86 1   
    81   78   79 2   
    82   78   93 1   
    83   80   81 1   
    84   80   87 1   
    85   80   88 1   
    86   81   82 1   
    87   81   89 1   
    88   81   90 1   
    89   82   83 1   
    90   82   84 2   
    91   83   91 1   
    92   83   92 1   
    93   93   94 1   
    94   93  100 1   
    95   94   95 1   
    96   94   97 1   
    97   94  101 1   
    98   95   96 2   
    99   95  109 1   
   100   97   98 1   
   101   97   99 1   
   102   97  102 1   
   103   98  103 1   
   104   98  104 1   
   105   98  105 1   
   106   99  106 1   
   107   99  107 1   
   108   99  108 1   
   109  109  110 1   
   110  109  117 1   
   111  110  111 1   
   112  110  113 1   
   113  110  118 1   
   114  111  112 2   
   115  111  123 1   
   116  113  114 1   
   117  113  119 1   
   118  113  120 1   
   119  114  115 1   
   120  114  116 2   
   121  115  121 1   
   122  115  122 1   
   123  123  124 1   
   124  123  135 1   
   125  124  125 1   
   126  124  127 1   
   127  124  136 1   
   128  125  126 2   
   129  125  144 1   
   130  127  128 1   
   131  127  137 1   
   132  127  138 1   
   133  128  129 ar  
   134  128  130 ar  
   135  129  131 ar  
   136  129  139 1   
   137  130  132 ar  
   138  130  140 1   
   139  131  133 ar  
   140  131  141 1   
   141  132  133 ar  
   142  132  142 1   
   143  133  134 1   
   144  134  143 1   
   145  144  145 1   
   146  144  153 1   
   147  145  146 1   
   148  145  148 1   
   149  145  154 1   
   150  146  147 2   
   151  146  159 1   
   152  148  149 1   
   153  148  155 1   
   154  148  156 1   
   155  149  150 1   
   156  149  157 1   
   157  149  158 1   
   158  150  151 1   
   159  150  152 1   
   160  159  160 1   
   161  159  168 1   
   162  160  161 1   
   163  160  163 1   
   164  160  169 1   
   165  161  162 2   
   166  161  174 1   
   167  163  164 1   
   168  163  170 1   
   169  163  171 1   
   170  164  165 1   
   171  164  172 1   
   172  164  173 1   
   173  165  166 1   
   174  165  167 1   
   175  174  175 1   
   176  174  179 1   
   177  175  176 1   
   178  175  177 1   
   179  175  178 1   
   180  181  182 1   
   181  181  183 1   
   182  184  185 1   
   183  184  186 1   
   184  187  188 1   
   185  187  189 1   
   186  190  191 1   
   187  190  192 1   
@<TRIPOS>SUBSTRUCTURE
     1 MOL         1 TEMP              0 ****  ****    0 ROOT
