@<TRIPOS>MOLECULE
MOL
  186   183     1     0     0
SMALL
resp


@<TRIPOS>ATOM
      1 C1          4.5480    4.9060   -2.6170 c3        1 MOL     -0.456842
      2 C2          5.2220    3.7770   -1.8020 c         1 MOL      0.887388
      3 O1          4.6780    3.3840   -0.7990 o         1 MOL     -0.633980
      4 H1          4.1240    4.4890   -3.5320 hc        1 MOL      0.119684
      5 H2          3.7540    5.3590   -2.0240 hc        1 MOL      0.119684
      6 H3          5.2890    5.6630   -2.8720 hc        1 MOL      0.119684
      7 N1          6.4270    3.2650   -2.0910 n         1 MOL     -0.879647
      8 C3          7.1530    2.0610   -1.5310 c3        1 MOL      0.459826
      9 C4          6.3150    0.7960   -1.3480 c         1 MOL      0.321848
     10 O2          5.8550    0.4480   -0.2740 o         1 MOL     -0.492269
     11 C5          8.0540    2.3640   -0.2960 c3        1 MOL     -0.057315
     12 C6          7.3690    3.2020    0.7820 c         1 MOL      0.819605
     13 O3          6.5910    2.6610    1.5950 o         1 MOL     -0.763607
     14 O4          7.7150    4.3810    0.9260 o         1 MOL     -0.763607
     15 H4          6.9320    3.7340   -2.8330 hn        1 MOL      0.343666
     16 H5          7.9160    1.7590   -2.2540 h1        1 MOL     -0.029240
     17 H6          8.9070    2.9140   -0.7130 hc        1 MOL     -0.014568
     18 H7          8.3480    1.3920    0.0980 hc        1 MOL     -0.014568
     19 N2          6.0050    0.1610   -2.4790 n         1 MOL     -0.501570
     20 C7          5.1210   -1.0110   -2.6500 c3        1 MOL      0.133012
     21 C8          5.5290   -2.3470   -1.9730 c         1 MOL      0.379282
     22 O5          5.5370   -3.3970   -2.6120 o         1 MOL     -0.517702
     23 C9          3.6450   -0.6160   -2.5260 c3        1 MOL      0.128342
     24 C10         2.5670   -1.6870   -2.8780 c3        1 MOL      0.108629
     25 C11         3.4480    0.6750   -3.3780 c3        1 MOL     -0.311758
     26 C12         2.5780   -2.3880   -4.2330 c3        1 MOL     -0.380895
     27 H8          6.4380    0.5580   -3.3020 hn        1 MOL      0.290193
     28 H9          5.1720   -1.3050   -3.6960 h1        1 MOL      0.042320
     29 H10         3.4730   -0.3290   -1.4830 hc        1 MOL     -0.076429
     30 H11         1.6150   -1.2180   -2.6660 hc        1 MOL      0.059798
     31 H12         2.7440   -2.4600   -2.1290 hc        1 MOL      0.059798
     32 H13         3.8530    1.5100   -2.8110 hc        1 MOL      0.060997
     33 H14         3.7290    0.4630   -4.4180 hc        1 MOL      0.060997
     34 H15         2.4020    0.9870   -3.3720 hc        1 MOL      0.060997
     35 H16         1.9450   -3.2730   -4.2190 hc        1 MOL      0.077811
     36 H17         2.0540   -1.6630   -4.8480 hc        1 MOL      0.077811
     37 H18         3.5920   -2.6670   -4.5500 hc        1 MOL      0.077811
     38 N3          6.0250   -2.2160   -0.7010 n         1 MOL     -0.212554
     39 C13         6.7100   -3.2610    0.0880 c3        1 MOL      0.104553
     40 C14         6.0440   -4.6510    0.0710 c         1 MOL      0.585867
     41 O6          6.5980   -5.5210   -0.6230 o         1 MOL     -0.571160
     42 C15         7.2290   -2.7260    1.4560 c3        1 MOL     -0.295972
     43 C16         8.4700   -1.8520    1.4610 c         1 MOL      0.715486
     44 O7          9.0840   -1.7430    0.3360 o         1 MOL     -0.720640
     45 O8          8.8250   -1.2760    2.5050 o         1 MOL     -0.720640
     46 H19         5.8070   -1.3200   -0.2810 hn        1 MOL      0.255299
     47 H20         7.5990   -3.5410   -0.4830 h1        1 MOL      0.018330
     48 H21         7.4520   -3.6440    2.0090 hc        1 MOL      0.107519
     49 H22         6.4370   -2.2630    2.0440 hc        1 MOL      0.107519
     50 N4          4.9260   -4.8630    0.7820 n         1 MOL     -0.620235
     51 C17         3.9980   -3.8650    1.3300 c3        1 MOL      0.198671
     52 C18         4.2750   -3.4200    2.7570 c         1 MOL      0.342211
     53 O9          5.1890   -3.9010    3.4680 o         1 MOL     -0.519919
     54 H23         4.6090   -5.8230    0.7230 hn        1 MOL      0.296006
     55 H24         2.9850   -4.2790    1.3820 h1        1 MOL      0.062914
     56 H25         3.9670   -2.9840    0.6930 h1        1 MOL      0.062914
     57 N5          3.4360   -2.4990    3.3420 n         1 MOL     -0.303419
     58 C19         2.1850   -1.9180    2.7460 c3        1 MOL      0.019058
     59 C20         2.3410   -1.1450    1.3990 c         1 MOL      0.064995
     60 O10         3.4250   -0.6520    1.2140 o         1 MOL     -0.461095
     61 C21         1.5190   -0.9950    3.7700 c3        1 MOL     -0.177343
     62 C22         2.4230    0.1660    4.2350 c         1 MOL      0.803991
     63 O11         3.0190    0.1870    5.3480 o         1 MOL     -0.709202
     64 O12         2.5400    1.1770    3.4780 o         1 MOL     -0.709202
     65 H26         3.6000   -2.4100    4.3330 hn        1 MOL      0.284022
     66 H27         1.5910   -2.7820    2.4360 h1        1 MOL      0.033413
     67 H28         1.3350   -1.6230    4.6480 hc        1 MOL      0.022612
     68 H29         0.6250   -0.5510    3.3350 hc        1 MOL      0.022612
     69 N6          1.2890   -1.0000    0.6000 n         1 MOL     -0.116165
     70 C23        -0.0030   -1.6960    0.6870 c3        1 MOL     -0.123495
     71 C24        -0.0260   -3.1380    0.2080 c         1 MOL      0.546795
     72 O13         0.9300   -3.5400   -0.4620 o         1 MOL     -0.552788
     73 H30         1.4340   -0.5390   -0.2840 hn        1 MOL      0.253546
     74 H31        -0.7910   -1.1640    0.1740 h1        1 MOL      0.104302
     75 H32        -0.3380   -1.7480    1.7270 h1        1 MOL      0.104302
     76 N7         -1.2240   -3.7800    0.2650 n         1 MOL     -0.515990
     77 C25        -1.6310   -5.0090   -0.4780 c3        1 MOL      0.156624
     78 C26        -2.5600   -4.7060   -1.6500 c         1 MOL      0.269926
     79 O14        -2.9490   -5.6080   -2.4370 o         1 MOL     -0.517378
     80 C27        -2.1140   -6.0450    0.4740 c3        1 MOL      0.273556
     81 C28        -3.5980   -5.9070    0.7750 c3        1 MOL     -0.500436
     82 C29        -3.9980   -4.6800    1.6040 c         1 MOL      0.655350
     83 N8         -4.1510   -4.8200    2.9030 n         1 MOL     -0.786476
     84 O15        -4.0630   -3.5570    1.1210 o         1 MOL     -0.544941
     85 H33        -1.9390   -3.2620    0.7660 hn        1 MOL      0.241989
     86 H34        -0.7370   -5.4850   -0.8880 h1        1 MOL      0.100461
     87 H35        -1.5380   -6.0600    1.3930 hc        1 MOL     -0.042643
     88 H36        -1.8920   -7.0020   -0.0020 hc        1 MOL     -0.042643
     89 H37        -3.7640   -6.7800    1.4150 hc        1 MOL      0.138567
     90 H38        -4.2050   -5.9790   -0.1250 hc        1 MOL      0.138567
     91 H39        -3.8250   -5.7070    3.2640 hn        1 MOL      0.366501
     92 H40        -3.7950   -4.0150    3.3820 hn        1 MOL      0.366501
     93 N9         -2.8960   -3.4200   -1.8000 n         1 MOL     -0.067925
     94 C30        -3.5800   -2.9390   -3.1140 c3        1 MOL     -0.172203
     95 C31        -4.8600   -2.1140   -2.8370 c         1 MOL      0.402656
     96 O16        -5.3100   -1.4110   -3.7560 o         1 MOL     -0.524036
     97 C32        -2.5760   -2.1990   -4.0220 c3        1 MOL      0.237589
     98 C33        -1.3280   -3.1160   -4.1800 c3        1 MOL     -0.192610
     99 C34        -2.0040   -0.8360   -3.4290 c3        1 MOL     -0.192610
    100 H41        -2.6310   -2.7120   -1.1280 hn        1 MOL      0.202815
    101 H42        -3.9410   -3.8460   -3.6080 h1        1 MOL      0.138553
    102 H43        -3.0160   -1.9980   -5.0040 hc        1 MOL      0.010135
    103 H44        -1.7290   -4.0230   -4.6310 hc        1 MOL      0.035710
    104 H45        -0.8260   -2.6350   -5.0160 hc        1 MOL      0.035710
    105 H46        -0.6530   -3.0290   -3.3260 hc        1 MOL      0.035710
    106 H47        -1.5320   -1.0130   -2.4580 hc        1 MOL      0.035710
    107 H48        -1.2360   -0.4000   -4.0780 hc        1 MOL      0.035710
    108 H49        -2.7680   -0.0960   -3.2060 hc        1 MOL      0.035710
    109 N10        -5.4260   -2.2000   -1.6660 n         1 MOL     -0.154332
    110 C35        -6.7600   -1.6280   -1.4470 c3        1 MOL     -0.005756
    111 C36        -6.8240   -0.0900   -1.2500 c         1 MOL      0.553206
    112 O17        -7.7990    0.5870   -1.4790 o         1 MOL     -0.560481
    113 C37        -7.3550   -2.2330   -0.1000 c3        1 MOL     -0.289592
    114 C38        -7.4790   -3.7630   -0.1950 c         1 MOL      0.658060
    115 N11        -7.2910   -4.5390    0.8030 n         1 MOL     -0.753817
    116 O18        -7.8220   -4.3360   -1.2040 o         1 MOL     -0.565410
    117 H50        -4.9370   -2.8110   -1.0230 hn        1 MOL      0.145833
    118 H51        -7.4480   -1.8790   -2.2640 h1        1 MOL      0.094549
    119 H52        -8.3250   -1.7380   -0.0560 hc        1 MOL      0.122734
    120 H53        -6.7010   -1.9210    0.7100 hc        1 MOL      0.122734
    121 H54        -7.0120   -4.2050    1.7170 hn        1 MOL      0.350804
    122 H55        -7.6850   -5.4560    0.6400 hn        1 MOL      0.350804
    123 N12        -5.8030    0.5440   -0.6680 n         1 MOL     -0.537393
    124 C39        -5.8400    1.9430   -0.2180 c3        1 MOL      0.452897
    125 C40        -4.4650    2.6460   -0.3500 c         1 MOL      0.282899
    126 O19        -3.3830    2.0670   -0.5140 o         1 MOL     -0.413993
    127 C41        -6.2800    1.8740    1.2050 c3        1 MOL     -0.096113
    128 C42        -7.6630    1.3960    1.5570 ca        1 MOL     -0.126131
    129 C43        -8.8150    2.0040    1.0910 ca        1 MOL     -0.007587
    130 C44        -7.7730    0.2220    2.3280 ca        1 MOL     -0.007587
    131 C45       -10.1110    1.5310    1.4340 ca        1 MOL     -0.313393
    132 C46        -9.0030   -0.3200    2.6220 ca        1 MOL     -0.313393
    133 C47       -10.2450    0.2980    2.2270 ca        1 MOL      0.354082
    134 O20       -11.3540   -0.2930    2.5760 oh        1 MOL     -0.498632
    135 H56        -4.9790    0.0050   -0.4330 hn        1 MOL      0.216443
    136 H57        -6.4610    2.5930   -0.8270 h1        1 MOL     -0.000972
    137 H58        -6.1180    2.8680    1.6270 hc        1 MOL      0.084840
    138 H59        -5.4790    1.3140    1.6930 hc        1 MOL      0.084840
    139 H60        -8.6340    2.8730    0.4800 ha        1 MOL      0.086609
    140 H61        -6.8540   -0.2500    2.6310 ha        1 MOL      0.086609
    141 H62       -10.9430    2.1030    1.0450 ha        1 MOL      0.125729
    142 H63        -9.0600   -1.3050    3.0610 ha        1 MOL      0.125729
    143 H64       -12.1340    0.0140    2.1000 ho        1 MOL      0.390510
    144 N13        -4.5170    3.9570    0.0480 n         1 MOL     -0.545471
    145 C48        -3.3950    4.8370    0.5460 c3        1 MOL      0.335344
    146 C49        -2.1390    5.1300   -0.3000 c         1 MOL      0.080825
    147 O21        -1.5510    6.1770   -0.1210 o         1 MOL     -0.450384
    148 C50        -2.8510    4.4180    1.9260 c3        1 MOL     -0.117884
    149 C51        -3.9080    4.7960    2.9720 c3        1 MOL     -0.286861
    150 C52        -3.4680    4.8480    4.4340 c         1 MOL      0.836458
    151 O22        -3.2980    3.8020    5.0260 o         1 MOL     -0.757482
    152 O23        -3.4030    5.8870    5.0580 o         1 MOL     -0.757482
    153 H65        -5.4060    4.4420    0.0500 hn        1 MOL      0.282203
    154 H66        -3.7900    5.8530    0.5610 h1        1 MOL      0.051794
    155 H67        -1.9740    4.9840    2.2560 hc        1 MOL      0.104724
    156 H68        -2.5620    3.3680    2.0380 hc        1 MOL      0.104724
    157 H69        -4.7220    4.0700    2.9050 hc        1 MOL     -0.005425
    158 H70        -4.3560    5.7610    2.7310 hc        1 MOL     -0.005425
    159 N14        -1.8120    4.2880   -1.2220 n         1 MOL     -0.243341
    160 C53        -0.7080    4.4300   -2.1170 c3        1 MOL      0.004069
    161 C54        -1.0210    5.1760   -3.4160 c         1 MOL      0.467652
    162 O24        -0.1390    5.7920   -4.0200 o         1 MOL     -0.564667
    163 C55        -0.0630    3.0870   -2.4000 c3        1 MOL     -0.009486
    164 C56         0.1060    2.0900   -1.2720 c3        1 MOL      0.740530
    165 C57         1.1330    2.4810   -0.2650 c         1 MOL      0.142726
    166 O25         2.0840    1.6840   -0.1200 o         1 MOL     -0.475237
    167 O26         0.9570    3.4760    0.4620 o         1 MOL     -0.475237
    168 H71        -2.2790    3.3840   -1.2290 hn        1 MOL      0.278207
    169 H72         0.0500    5.0700   -1.6590 h1        1 MOL      0.121915
    170 H73         0.8800    3.1860   -2.9440 hc        1 MOL     -0.062180
    171 H74        -0.8220    2.6950   -3.0760 hc        1 MOL     -0.062180
    172 H75         0.3870    1.1190   -1.6690 hc        1 MOL     -0.238160
    173 H76        -0.8590    1.8210   -0.8340 hc        1 MOL     -0.238160
    174 N15        -2.2890    5.1760   -3.8060 n         1 MOL     -0.163576
    175 C58        -2.9200    5.8410   -4.9680 c3        1 MOL     -0.292135
    176 H77        -2.2650    6.6330   -5.3320 h1        1 MOL      0.110445
    177 H78        -3.0840    5.1110   -5.7600 h1        1 MOL      0.110445
    178 H79        -3.8750    6.2700   -4.6660 h1        1 MOL      0.110445
    179 H80        -2.8640    4.5770   -3.2240 hn        1 MOL      0.178571
    180 Ca1         4.1890    1.7840    1.3700 Ca        1 MOL      1.729015
    181 O27         5.3860    0.4570    3.6070 oh        1 MOL     -0.935528
    182 H81         5.0040    0.2010    4.4400 ho        1 MOL      0.438490
    183 H82         5.9900    1.1760    3.8150 ho        1 MOL      0.438490
    184 O28         3.5700    4.4070    2.1110 oh        1 MOL     -0.935528
    185 H83         3.0350    4.8830    2.7350 ho        1 MOL      0.438490
    186 H84         4.0530    5.0910    1.6400 ho        1 MOL      0.438490
@<TRIPOS>BOND
     1    1    2 1   
     2    1    4 1   
     3    1    5 1   
     4    1    6 1   
     5    2    3 2   
     6    2    7 1   
     7    7    8 1   
     8    7   15 1   
     9    8    9 1   
    10    8   11 1   
    11    8   16 1   
    12    9   10 2   
    13    9   19 1   
    14   11   12 1   
    15   11   17 1   
    16   11   18 1   
    17   12   13 1   
    18   12   14 1   
    19   19   20 1   
    20   19   27 1   
    21   20   21 1   
    22   20   23 1   
    23   20   28 1   
    24   21   22 2   
    25   21   38 1   
    26   23   24 1   
    27   23   25 1   
    28   23   29 1   
    29   24   26 1   
    30   24   30 1   
    31   24   31 1   
    32   25   32 1   
    33   25   33 1   
    34   25   34 1   
    35   26   35 1   
    36   26   36 1   
    37   26   37 1   
    38   38   39 1   
    39   38   46 1   
    40   39   40 1   
    41   39   42 1   
    42   39   47 1   
    43   40   41 2   
    44   40   50 1   
    45   42   43 1   
    46   42   48 1   
    47   42   49 1   
    48   43   44 1   
    49   43   45 1   
    50   50   51 1   
    51   50   54 1   
    52   51   52 1   
    53   51   55 1   
    54   51   56 1   
    55   52   53 2   
    56   52   57 1   
    57   57   58 1   
    58   57   65 1   
    59   58   59 1   
    60   58   61 1   
    61   58   66 1   
    62   59   60 2   
    63   59   69 1   
    64   61   62 1   
    65   61   67 1   
    66   61   68 1   
    67   62   63 1   
    68   62   64 1   
    69   69   70 1   
    70   69   73 1   
    71   70   71 1   
    72   70   74 1   
    73   70   75 1   
    74   71   72 2   
    75   71   76 1   
    76   76   77 1   
    77   76   85 1   
    78   77   78 1   
    79   77   80 1   
    80   77   86 1   
    81   78   79 2   
    82   78   93 1   
    83   80   81 1   
    84   80   87 1   
    85   80   88 1   
    86   81   82 1   
    87   81   89 1   
    88   81   90 1   
    89   82   83 1   
    90   82   84 2   
    91   83   91 1   
    92   83   92 1   
    93   93   94 1   
    94   93  100 1   
    95   94   95 1   
    96   94   97 1   
    97   94  101 1   
    98   95   96 2   
    99   95  109 1   
   100   97   98 1   
   101   97   99 1   
   102   97  102 1   
   103   98  103 1   
   104   98  104 1   
   105   98  105 1   
   106   99  106 1   
   107   99  107 1   
   108   99  108 1   
   109  109  110 1   
   110  109  117 1   
   111  110  111 1   
   112  110  113 1   
   113  110  118 1   
   114  111  112 2   
   115  111  123 1   
   116  113  114 1   
   117  113  119 1   
   118  113  120 1   
   119  114  115 1   
   120  114  116 2   
   121  115  121 1   
   122  115  122 1   
   123  123  124 1   
   124  123  135 1   
   125  124  125 1   
   126  124  127 1   
   127  124  136 1   
   128  125  126 2   
   129  125  144 1   
   130  127  128 1   
   131  127  137 1   
   132  127  138 1   
   133  128  129 ar  
   134  128  130 ar  
   135  129  131 ar  
   136  129  139 1   
   137  130  132 ar  
   138  130  140 1   
   139  131  133 ar  
   140  131  141 1   
   141  132  133 ar  
   142  132  142 1   
   143  133  134 1   
   144  134  143 1   
   145  144  145 1   
   146  144  153 1   
   147  145  146 1   
   148  145  148 1   
   149  145  154 1   
   150  146  147 2   
   151  146  159 1   
   152  148  149 1   
   153  148  155 1   
   154  148  156 1   
   155  149  150 1   
   156  149  157 1   
   157  149  158 1   
   158  150  151 1   
   159  150  152 1   
   160  159  160 1   
   161  159  168 1   
   162  160  161 1   
   163  160  163 1   
   164  160  169 1   
   165  161  162 2   
   166  161  174 1   
   167  163  164 1   
   168  163  170 1   
   169  163  171 1   
   170  164  165 1   
   171  164  172 1   
   172  164  173 1   
   173  165  166 1   
   174  165  167 1   
   175  174  175 1   
   176  174  179 1   
   177  175  176 1   
   178  175  177 1   
   179  175  178 1   
   180  181  182 1   
   181  181  183 1   
   182  184  185 1   
   183  184  186 1   
@<TRIPOS>SUBSTRUCTURE
     1 MOL         1 TEMP              0 ****  ****    0 ROOT
