@<TRIPOS>MOLECULE
MOL
  188   182     1     0     0
SMALL
resp


@<TRIPOS>ATOM
      1 C1          5.6750    4.1540   -1.8700 c3        1 MOL     -0.403864
      2 C2          6.2440    2.6820   -1.8690 c         1 MOL      0.682261
      3 O1          5.6600    1.8790   -1.1820 o         1 MOL     -0.553431
      4 H1          5.7160    4.5600   -0.8590 hc        1 MOL      0.103367
      5 H2          6.2750    4.7760   -2.5350 hc        1 MOL      0.103367
      6 H3          4.6420    4.1450   -2.2160 hc        1 MOL      0.103367
      7 N1          7.4410    2.4380   -2.5200 n         1 MOL     -0.565695
      8 C3          7.9790    1.0930   -2.7740 c3        1 MOL      0.253999
      9 C4          8.3000    0.4530   -1.4590 c         1 MOL      0.488423
     10 O2          8.2920   -0.7310   -1.2710 o         1 MOL     -0.440463
     11 C5          7.0280    0.2470   -3.7500 c3        1 MOL     -0.332077
     12 C6          7.7290   -0.9810   -4.3120 c         1 MOL      0.681782
     13 O3          8.9570   -1.0850   -4.2720 o         1 MOL     -0.643485
     14 O4          7.0310   -1.8860   -4.8410 o         1 MOL     -0.643485
     15 H4          7.9010    3.1650   -3.0560 hn        1 MOL      0.310734
     16 H5          8.9160    1.1520   -3.3220 h1        1 MOL      0.015912
     17 H6          6.6950    0.9690   -4.5050 hc        1 MOL      0.094985
     18 H7          6.1770   -0.1480   -3.1910 hc        1 MOL      0.094985
     19 N2          8.6910    1.2650   -0.4610 n         1 MOL     -0.459744
     20 C7          8.9910    0.8730    0.9860 c3        1 MOL     -0.041919
     21 C8          7.8850    0.1400    1.7600 c         1 MOL      0.570456
     22 O5          8.0420   -0.3960    2.8380 o         1 MOL     -0.559194
     23 C9          9.2720    2.1750    1.7010 c3        1 MOL     -0.002326
     24 C10         8.0170    3.0550    1.7530 c3        1 MOL      0.139009
     25 C11         8.2840    4.4340    2.2560 c3        1 MOL     -0.133353
     26 C12         8.7980    4.3500    3.7430 c3        1 MOL      0.049610
     27 N3          9.3080    5.6710    4.1690 n4        1 MOL     -0.124903
     28 H8          8.6280    2.2510   -0.6680 hn        1 MOL      0.185004
     29 H9          9.8940    0.2690    1.0110 h1        1 MOL      0.135601
     30 H10        10.0600    2.7290    1.2060 hc        1 MOL      0.015245
     31 H11         9.6840    1.9890    2.6870 hc        1 MOL      0.015245
     32 H12         7.3380    2.6200    2.4820 hc        1 MOL      0.008127
     33 H13         7.5370    3.0940    0.7780 hc        1 MOL      0.008127
     34 H14         7.3330    4.9660    2.1950 hc        1 MOL      0.033840
     35 H15         9.0620    4.8720    1.6320 hc        1 MOL      0.033840
     36 H16         9.6060    3.6170    3.7640 hx        1 MOL      0.067167
     37 H17         7.9940    4.0520    4.4110 hx        1 MOL      0.067167
     38 H18         9.7550    6.1180    3.3750 hn        1 MOL      0.172906
     39 H19         8.5940    6.3120    4.5020 hn        1 MOL      0.172906
     40 H20        10.0350    5.6770    4.8710 hn        1 MOL      0.172906
     41 N4          6.6630    0.2000    1.2290 n         1 MOL     -0.454760
     42 C13         5.3420   -0.0800    1.9660 c3        1 MOL     -0.108213
     43 C14         5.3430   -1.6430    2.3050 c         1 MOL      0.625809
     44 O6          5.7610   -2.4950    1.5360 o         1 MOL     -0.416259
     45 C15         4.1320    0.2430    1.0650 c3        1 MOL     -0.101224
     46 C16         2.7330    0.0020    1.6890 c         1 MOL      0.626589
     47 O7          2.0900    0.9260    2.2420 o         1 MOL     -0.711972
     48 O8          2.2290   -1.1470    1.5980 o         1 MOL     -0.711972
     49 H21         6.5590    0.6490    0.3270 hn        1 MOL      0.275875
     50 H22         5.1720    0.4600    2.9050 h1        1 MOL      0.045346
     51 H23         4.1810   -0.4390    0.2150 hc        1 MOL      0.108494
     52 H24         4.2410    1.2930    0.8090 hc        1 MOL      0.108494
     53 N5          4.6400   -1.9610    3.3920 n         1 MOL     -0.374947
     54 C17         4.5070   -3.3280    3.8900 c3        1 MOL     -0.239109
     55 C18         3.8180   -4.3670    2.9690 c         1 MOL      0.486813
     56 O9          4.2240   -5.5540    2.9460 o         1 MOL     -0.534950
     57 H25         4.3880   -1.2360    4.0580 hn        1 MOL      0.279655
     58 H26         4.0010   -3.1140    4.8340 h1        1 MOL      0.127383
     59 H27         5.5050   -3.7640    3.9660 h1        1 MOL      0.127383
     60 N6          2.9430   -3.8970    2.0410 n         1 MOL      0.010308
     61 C19         2.3140   -4.6650    0.9600 c3        1 MOL      0.015130
     62 C20         2.5310   -4.1400   -0.4320 c         1 MOL      0.410095
     63 O10         1.8840   -4.4470   -1.4420 o         1 MOL     -0.520713
     64 C21         0.8630   -4.9800    1.2310 c3        1 MOL     -0.335203
     65 C22        -0.0120   -3.7540    1.1900 c         1 MOL      0.557130
     66 N7         -0.6940   -3.6390    0.0870 n         1 MOL     -0.620546
     67 O11        -0.2060   -3.0120    2.1290 o         1 MOL     -0.553452
     68 H28         2.7070   -2.9300    2.1880 hn        1 MOL     -0.037198
     69 H29         2.8630   -5.6170    0.9390 h1        1 MOL      0.114244
     70 H30         1.0010   -5.3080    2.2540 hc        1 MOL      0.124183
     71 H31         0.4650   -5.7270    0.5380 hc        1 MOL      0.124183
     72 H32        -0.5290   -4.2270   -0.7180 hn        1 MOL      0.338307
     73 H33        -1.2580   -2.8080    0.1280 hn        1 MOL      0.338307
     74 N8          3.5080   -3.1820   -0.5410 n         1 MOL     -0.078155
     75 C23         3.8320   -2.6190   -1.8630 c3        1 MOL     -0.287065
     76 C24         2.9970   -1.3730   -2.2370 c         1 MOL      0.566062
     77 O12         3.2450   -0.7720   -3.2550 o         1 MOL     -0.515230
     78 H34         4.0260   -2.9290    0.2830 hn        1 MOL      0.029983
     79 H35         3.8060   -3.3690   -2.6450 h1        1 MOL      0.186265
     80 H36         4.8470   -2.2240   -1.7520 h1        1 MOL      0.186265
     81 N9          1.9130   -0.9340   -1.5170 n         1 MOL     -0.487053
     82 C25         1.1800    0.2990   -1.8760 c3        1 MOL      0.260605
     83 C26        -0.2350    0.1920   -1.2340 c         1 MOL      0.396765
     84 O13        -0.2600   -0.1300   -0.0390 o         1 MOL     -0.492125
     85 C27         1.8380    1.6160   -1.4480 c3        1 MOL      0.020755
     86 C28         1.1080    2.7970   -2.1160 ca        1 MOL     -0.047617
     87 C29         1.4090    3.1780   -3.4550 ca        1 MOL     -0.103513
     88 C30         0.2030    3.5290   -1.3670 ca        1 MOL     -0.103513
     89 C31         0.8730    4.3580   -3.9280 ca        1 MOL     -0.307872
     90 C32        -0.3720    4.7510   -1.8430 ca        1 MOL     -0.307872
     91 C33         0.0090    5.1880   -3.1520 ca        1 MOL      0.350396
     92 O14        -0.4620    6.3830   -3.7020 oh        1 MOL     -0.474986
     93 H37         1.6790   -1.3680   -0.6330 hn        1 MOL      0.195778
     94 H38         1.1880    0.2650   -2.9670 h1        1 MOL      0.045220
     95 H39         2.8840    1.6070   -1.7440 hc        1 MOL      0.011075
     96 H40         1.7000    1.7380   -0.3770 hc        1 MOL      0.011075
     97 H41         2.1140    2.6200   -4.0550 ha        1 MOL      0.143532
     98 H42         0.1030    3.2470   -0.3320 ha        1 MOL      0.143532
     99 H43         1.1240    4.6860   -4.9310 ha        1 MOL      0.169092
    100 H44        -0.9900    5.3920   -1.2310 ha        1 MOL      0.169092
    101 H45        -0.8990    6.9230   -3.0360 ho        1 MOL      0.352191
    102 N10        -1.2900    0.4160   -1.9420 n         1 MOL     -0.596438
    103 C34        -2.7080    0.4980   -1.4460 c3        1 MOL     -0.075748
    104 C35        -3.2750   -0.9160   -1.1750 c         1 MOL      0.495858
    105 O15        -4.2070   -1.0320   -0.4140 o         1 MOL     -0.423901
    106 C36        -3.6650    1.4360   -2.3170 c3        1 MOL      0.069384
    107 C37        -3.0870    2.8600   -2.4990 c3        1 MOL      0.227743
    108 C38        -5.0060    1.5470   -1.6200 c3        1 MOL     -0.666083
    109 C39        -3.6350    3.6240   -3.6960 c3        1 MOL     -0.052037
    110 H46        -1.2420    0.7950   -2.8790 hn        1 MOL      0.324712
    111 H47        -2.6630    0.9790   -0.4700 h1        1 MOL      0.139632
    112 H48        -3.8890    1.1290   -3.3390 hc        1 MOL      0.011862
    113 H49        -2.0010    2.8370   -2.6020 hc        1 MOL     -0.059312
    114 H50        -3.1920    3.4780   -1.6110 hc        1 MOL     -0.059312
    115 H51        -4.7850    1.9490   -0.6360 hc        1 MOL      0.176905
    116 H52        -5.5630    2.3080   -2.1670 hc        1 MOL      0.176905
    117 H53        -5.4610    0.5820   -1.3760 hc        1 MOL      0.176905
    118 H54        -4.6450    4.0200   -3.5640 hc        1 MOL      0.018291
    119 H55        -2.9240    4.4270   -3.9020 hc        1 MOL      0.018291
    120 H56        -3.5170    3.0590   -4.6210 hc        1 MOL      0.018291
    121 N11        -2.7670   -1.9150   -1.9040 n         1 MOL     -0.412636
    122 C40        -3.2990   -3.2780   -2.0540 c3        1 MOL      0.001192
    123 C41        -4.8250   -3.3010   -2.3300 c         1 MOL      0.224162
    124 O16        -5.5230   -4.1600   -1.8060 o         1 MOL     -0.427188
    125 C42        -2.5780   -4.0550   -3.1650 c3        1 MOL      0.409240
    126 O17        -1.2080   -4.4410   -2.9130 oh        1 MOL     -0.632484
    127 H57        -1.9910   -1.6940   -2.5030 hn        1 MOL      0.286537
    128 H58        -3.1870   -3.8680   -1.1410 h1        1 MOL      0.077313
    129 H59        -2.5760   -3.5800   -4.1440 h1        1 MOL     -0.007854
    130 H60        -3.1530   -4.9600   -3.3640 h1        1 MOL     -0.007854
    131 H61        -0.5890   -3.8320   -3.3130 ho        1 MOL      0.415540
    132 N12        -5.2890   -2.4110   -3.1640 n         1 MOL     -0.328295
    133 C43        -6.6910   -1.8930   -3.4110 c3        1 MOL      0.354284
    134 C44        -7.5760   -1.8520   -2.1220 c         1 MOL      0.389623
    135 O18        -8.7490   -2.1840   -2.2380 o         1 MOL     -0.510950
    136 C45        -7.2800   -2.6700   -4.5980 c3        1 MOL     -0.509746
    137 H62        -4.5840   -1.8800   -3.6590 hn        1 MOL      0.220510
    138 H63        -6.5480   -0.8750   -3.7640 h1        1 MOL      0.011304
    139 H64        -7.2020   -3.7120   -4.2700 hc        1 MOL      0.143749
    140 H65        -8.3140   -2.3910   -4.7820 hc        1 MOL      0.143749
    141 H66        -6.6210   -2.4760   -5.4480 hc        1 MOL      0.143749
    142 N13        -7.1000   -1.3980   -0.9520 n         1 MOL     -0.369226
    143 C46        -7.8540   -1.1950    0.2960 c3        1 MOL      0.338223
    144 C47        -8.5100    0.2490    0.3500 c         1 MOL      0.297401
    145 O19        -7.7990    1.2670    0.3870 o         1 MOL     -0.443239
    146 C48        -6.8920   -1.5440    1.5500 c3        1 MOL     -0.303698
    147 H67        -6.1410   -1.0900   -0.9080 hn        1 MOL      0.232248
    148 H68        -8.7200   -1.8500    0.3860 h1        1 MOL      0.009242
    149 H69        -6.1690   -0.7580    1.7540 hc        1 MOL      0.079087
    150 H70        -7.5220   -1.7840    2.3990 hc        1 MOL      0.079087
    151 H71        -6.3870   -2.5100    1.4110 hc        1 MOL      0.079087
    152 N14        -9.7860    0.1970    0.7250 n         1 MOL     -0.474790
    153 C49       -10.5030    1.3570    1.3510 c3        1 MOL      0.189104
    154 C50       -10.6790    2.5210    0.3140 c         1 MOL      0.277800
    155 O20       -10.6310    3.7480    0.6450 o         1 MOL     -0.487812
    156 C51        -9.8040    1.7320    2.6520 c3        1 MOL     -0.022735
    157 C52       -10.6950    2.1590    3.8060 c3        1 MOL     -0.279749
    158 C53        -9.9790    2.3010    5.1350 c         1 MOL      0.705249
    159 O21        -9.6410    3.4710    5.5110 o         1 MOL     -0.653879
    160 O22        -9.6290    1.2950    5.7470 o         1 MOL     -0.653879
    161 H72       -10.2840   -0.6800    0.6320 hn        1 MOL      0.297339
    162 H73       -11.5160    1.0460    1.5920 h1        1 MOL      0.042021
    163 H74        -9.1960    2.5740    2.3050 hc        1 MOL      0.067354
    164 H75        -9.1860    0.9100    2.9950 hc        1 MOL      0.067354
    165 H76       -11.5210    1.4570    3.8370 hc        1 MOL      0.052064
    166 H77       -11.2380    3.0750    3.5620 hc        1 MOL      0.052064
    167 N15       -10.8170    2.3100   -0.9670 n         1 MOL     -0.170950
    168 C54       -10.7830    3.2710   -2.1110 c3        1 MOL     -0.037534
    169 H78       -10.7460    4.2910   -1.7280 h1        1 MOL      0.061829
    170 H79        -9.8990    3.0810   -2.7200 h1        1 MOL      0.061829
    171 H80       -11.6780    3.1460   -2.7190 h1        1 MOL      0.061829
    172 H81       -11.0300    1.3380   -1.1200 hn        1 MOL      0.176680
    173 Ca1        -0.1040   -0.3770    2.7930 Ca        1 MOL      1.820772
    174 O23         1.6540   -1.8660    4.4440 oh        1 MOL     -0.850443
    175 H82         2.0950   -1.3530    5.1210 ho        1 MOL      0.416386
    176 H83         1.2980   -2.6200    4.9050 ho        1 MOL      0.416386
    177 O24        -1.4300   -1.4160    4.8780 oh        1 MOL     -0.850443
    178 H84        -1.8060   -2.2960    4.9250 ho        1 MOL      0.416386
    179 H85        -1.3200   -1.1550    5.7900 ho        1 MOL      0.416386
    180 O25        -1.0290    2.0730    2.0330 oh        1 MOL     -0.850443
    181 H86        -1.9350    2.3720    1.9800 ho        1 MOL      0.416386
    182 H87        -0.5080    2.8760    2.0510 ho        1 MOL      0.416386
    183 O26         0.1890    1.1980    4.9180 oh        1 MOL     -0.850443
    184 H88         0.9070    1.8220    5.0620 ho        1 MOL      0.416386
    185 H89        -0.3760    1.2950    5.6810 ho        1 MOL      0.416386
    186 O27        -2.7210   -1.2910    2.1280 oh        1 MOL     -0.850443
    187 H90        -3.5370   -0.8190    1.9420 ho        1 MOL      0.416386
    188 H91        -2.9670   -2.2220    2.0540 ho        1 MOL      0.416386
@<TRIPOS>BOND
     1    1    2 1   
     2    1    4 1   
     3    1    5 1   
     4    1    6 1   
     5    2    3 2   
     6    2    7 1   
     7    7    8 1   
     8    7   15 1   
     9    8    9 1   
    10    8   11 1   
    11    8   16 1   
    12    9   10 2   
    13    9   19 1   
    14   11   12 1   
    15   11   17 1   
    16   11   18 1   
    17   12   13 1   
    18   12   14 1   
    19   19   20 1   
    20   19   28 1   
    21   20   21 1   
    22   20   23 1   
    23   20   29 1   
    24   21   22 2   
    25   21   41 1   
    26   23   24 1   
    27   23   30 1   
    28   23   31 1   
    29   24   25 1   
    30   24   32 1   
    31   24   33 1   
    32   25   26 1   
    33   25   34 1   
    34   25   35 1   
    35   26   27 1   
    36   26   36 1   
    37   26   37 1   
    38   27   38 1   
    39   27   39 1   
    40   27   40 1   
    41   41   42 1   
    42   41   49 1   
    43   42   43 1   
    44   42   45 1   
    45   42   50 1   
    46   43   44 2   
    47   43   53 1   
    48   45   46 1   
    49   45   51 1   
    50   45   52 1   
    51   46   47 1   
    52   46   48 1   
    53   53   54 1   
    54   53   57 1   
    55   54   55 1   
    56   54   58 1   
    57   54   59 1   
    58   55   56 2   
    59   55   60 1   
    60   60   61 1   
    61   60   68 1   
    62   61   62 1   
    63   61   64 1   
    64   61   69 1   
    65   62   63 2   
    66   62   74 1   
    67   64   65 1   
    68   64   70 1   
    69   64   71 1   
    70   65   66 1   
    71   65   67 2   
    72   66   72 1   
    73   66   73 1   
    74   74   75 1   
    75   74   78 1   
    76   75   76 1   
    77   75   79 1   
    78   75   80 1   
    79   76   77 2   
    80   76   81 1   
    81   81   82 1   
    82   81   93 1   
    83   82   83 1   
    84   82   85 1   
    85   82   94 1   
    86   83   84 2   
    87   83  102 1   
    88   85   86 1   
    89   85   95 1   
    90   85   96 1   
    91   86   87 ar  
    92   86   88 ar  
    93   87   89 ar  
    94   87   97 1   
    95   88   90 ar  
    96   88   98 1   
    97   89   91 ar  
    98   89   99 1   
    99   90   91 ar  
   100   90  100 1   
   101   91   92 1   
   102   92  101 1   
   103  102  103 1   
   104  102  110 1   
   105  103  104 1   
   106  103  106 1   
   107  103  111 1   
   108  104  105 2   
   109  104  121 1   
   110  106  107 1   
   111  106  108 1   
   112  106  112 1   
   113  107  109 1   
   114  107  113 1   
   115  107  114 1   
   116  108  115 1   
   117  108  116 1   
   118  108  117 1   
   119  109  118 1   
   120  109  119 1   
   121  109  120 1   
   122  121  122 1   
   123  121  127 1   
   124  122  123 1   
   125  122  125 1   
   126  122  128 1   
   127  123  124 2   
   128  123  132 1   
   129  125  126 1   
   130  125  129 1   
   131  125  130 1   
   132  126  131 1   
   133  132  133 1   
   134  132  137 1   
   135  133  134 1   
   136  133  136 1   
   137  133  138 1   
   138  134  135 2   
   139  134  142 1   
   140  136  139 1   
   141  136  140 1   
   142  136  141 1   
   143  142  143 1   
   144  142  147 1   
   145  143  144 1   
   146  143  146 1   
   147  143  148 1   
   148  144  145 2   
   149  144  152 1   
   150  146  149 1   
   151  146  150 1   
   152  146  151 1   
   153  152  153 1   
   154  152  161 1   
   155  153  154 1   
   156  153  156 1   
   157  153  162 1   
   158  154  155 2   
   159  154  167 1   
   160  156  157 1   
   161  156  163 1   
   162  156  164 1   
   163  157  158 1   
   164  157  165 1   
   165  157  166 1   
   166  158  159 1   
   167  158  160 1   
   168  167  168 1   
   169  167  172 1   
   170  168  169 1   
   171  168  170 1   
   172  168  171 1   
   173  174  175 1   
   174  174  176 1   
   175  177  178 1   
   176  177  179 1   
   177  180  181 1   
   178  180  182 1   
   179  183  184 1   
   180  183  185 1   
   181  186  187 1   
   182  186  188 1   
@<TRIPOS>SUBSTRUCTURE
     1 MOL         1 TEMP              0 ****  ****    0 ROOT
