@<TRIPOS>MOLECULE
MOL
  189   185     1     0     0
SMALL
resp


@<TRIPOS>ATOM
      1 C1          4.4650    4.0070   -3.3420 c3        1 MOL     -0.350675
      2 C2          5.1700    3.1380   -2.3320 c         1 MOL      0.818420
      3 O1          4.5910    2.7710   -1.3300 o         1 MOL     -0.565174
      4 H1          3.6250    4.5110   -2.8640 hc        1 MOL      0.085818
      5 H2          5.1600    4.7500   -3.7310 hc        1 MOL      0.085818
      6 H3          4.0990    3.3880   -4.1610 hc        1 MOL      0.085818
      7 N1          6.5010    2.8100   -2.5250 n         1 MOL     -0.689490
      8 C3          7.2680    1.7580   -1.7940 c3        1 MOL      0.203210
      9 C4          6.4460    0.4770   -1.5940 c         1 MOL      0.419168
     10 O2          5.9280    0.2230   -0.5190 o         1 MOL     -0.540192
     11 C5          7.9400    2.2730   -0.4730 c3        1 MOL     -0.059794
     12 C6          7.2240    3.4460    0.1680 c         1 MOL      0.731771
     13 O3          6.3250    3.1880    0.9430 o         1 MOL     -0.729218
     14 O4          7.6160    4.6120   -0.0820 o         1 MOL     -0.729218
     15 H4          6.9200    3.2310   -3.3450 hn        1 MOL      0.305495
     16 H5          8.1170    1.4270   -2.4000 h1        1 MOL      0.021779
     17 H6          8.9690    2.5980   -0.6390 hc        1 MOL      0.003370
     18 H7          8.0740    1.4340    0.2070 hc        1 MOL      0.003370
     19 N2          6.0730   -0.0770   -2.7720 n         1 MOL     -0.428300
     20 C7          5.2560   -1.2910   -3.0100 c3        1 MOL      0.075605
     21 C8          5.7350   -2.5710   -2.2780 c         1 MOL      0.401663
     22 O5          5.9820   -3.5210   -2.9990 o         1 MOL     -0.583773
     23 C9          3.7400   -1.0420   -2.7130 c3        1 MOL      0.168598
     24 C10         3.0340   -2.3360   -3.1500 c3        1 MOL      0.039699
     25 C11         3.2130    0.1640   -3.4440 c3        1 MOL     -0.063672
     26 C12         1.4960   -2.2830   -3.1250 c3        1 MOL     -0.128216
     27 H8          6.3370    0.3530   -3.6400 hn        1 MOL      0.253301
     28 H9          5.3250   -1.4700   -4.0870 h1        1 MOL      0.053573
     29 H10         3.4860   -0.8530   -1.6620 hc        1 MOL     -0.101620
     30 H11         3.2410   -3.2290   -2.5690 hc        1 MOL     -0.030128
     31 H12         3.3090   -2.4350   -4.1960 hc        1 MOL     -0.030128
     32 H13         3.8190    1.0420   -3.2250 hc        1 MOL     -0.010017
     33 H14         3.2270   -0.0320   -4.5260 hc        1 MOL     -0.010017
     34 H15         2.2300    0.4800   -3.0910 hc        1 MOL     -0.010017
     35 H16         1.1640   -1.5320   -3.8490 hc        1 MOL      0.048840
     36 H17         1.0710   -3.2560   -3.3920 hc        1 MOL      0.048840
     37 H18         1.0900   -1.9680   -2.1630 hc        1 MOL      0.048840
     38 N3          5.8710   -2.6530   -0.9420 n         1 MOL     -0.119778
     39 C13         6.6310   -3.6880   -0.2270 c3        1 MOL      0.117233
     40 C14         5.7680   -5.0250    0.0200 c         1 MOL      0.589816
     41 O6          6.3090   -6.0400   -0.2650 o         1 MOL     -0.582865
     42 C15         7.2530   -3.0900    0.9930 c3        1 MOL     -0.280714
     43 C16         8.3600   -2.0480    0.7860 c         1 MOL      0.738173
     44 O7          9.1920   -2.3260   -0.0740 o         1 MOL     -0.703051
     45 O8          8.5430   -1.0150    1.5180 o         1 MOL     -0.703051
     46 H19         5.6380   -1.7890   -0.4630 hn        1 MOL      0.197721
     47 H20         7.4180   -3.9450   -0.9260 h1        1 MOL      0.037088
     48 H21         7.6500   -3.8840    1.6210 hc        1 MOL      0.077464
     49 H22         6.4060   -2.5710    1.4540 hc        1 MOL      0.077464
     50 N4          4.5260   -5.0780    0.5120 n         1 MOL     -0.595395
     51 C17         3.7000   -4.0520    1.0920 c3        1 MOL      0.092895
     52 C18         4.1260   -3.6470    2.4880 c         1 MOL      0.464062
     53 O9          5.0700   -4.1520    3.0890 o         1 MOL     -0.546485
     54 H23         4.1570   -6.0080    0.6200 hn        1 MOL      0.309211
     55 H24         2.6530   -4.3520    1.0670 h1        1 MOL      0.091080
     56 H25         3.7690   -3.1860    0.4390 h1        1 MOL      0.091080
     57 N5          3.5040   -2.6600    3.1810 n         1 MOL     -0.408989
     58 C19         2.2260   -1.9860    2.8470 c3        1 MOL     -0.026618
     59 C20         2.1860   -1.2680    1.5520 c         1 MOL      0.064100
     60 O10         3.1790   -0.8930    1.0050 o         1 MOL     -0.395053
     61 C21         1.8410   -0.9890    3.9450 c3        1 MOL     -0.341420
     62 C22         2.8390    0.1360    4.1150 c         1 MOL      0.766589
     63 O11         2.8190    1.1130    3.2970 o         1 MOL     -0.676369
     64 O12         3.5810    0.1650    5.0840 o         1 MOL     -0.676369
     65 H26         3.9360   -2.4810    4.0780 hn        1 MOL      0.320539
     66 H27         1.4320   -2.7120    2.6710 h1        1 MOL      0.099861
     67 H28         1.6810   -1.5260    4.8770 hc        1 MOL      0.092161
     68 H29         0.8600   -0.5790    3.7230 hc        1 MOL      0.092161
     69 N6          1.0420   -0.9050    0.9120 n         1 MOL     -0.124666
     70 C23        -0.3500   -1.2120    1.2620 c3        1 MOL     -0.031151
     71 C24        -0.6450   -2.5870    0.6340 c         1 MOL      0.570666
     72 O13         0.2710   -3.3410    0.3050 o         1 MOL     -0.557358
     73 H30         1.2120   -0.3580    0.0880 hn        1 MOL      0.210402
     74 H31        -1.0520   -0.4430    0.9190 h1        1 MOL      0.103997
     75 H32        -0.3050   -1.2560    2.3490 h1        1 MOL      0.103997
     76 N7         -1.8860   -2.8320    0.5840 n         1 MOL     -0.336991
     77 C25        -2.4960   -4.1630    0.3130 c3        1 MOL     -0.041491
     78 C26        -3.1780   -4.2650   -1.0290 c         1 MOL      0.517020
     79 O14        -3.5010   -5.3100   -1.5130 o         1 MOL     -0.553309
     80 C27        -3.3190   -4.5910    1.5590 c3        1 MOL      0.097635
     81 C28        -4.1160   -3.5130    2.3820 c3        1 MOL     -0.633765
     82 C29        -5.3370   -3.0800    1.5970 c         1 MOL      0.681613
     83 N8         -6.4110   -3.8830    1.6410 n         1 MOL     -0.862110
     84 O15        -5.2250   -2.1270    0.8230 o         1 MOL     -0.370051
     85 H33        -2.5120   -2.0570    0.7310 hn        1 MOL      0.154182
     86 H34        -1.7880   -4.9770    0.1550 h1        1 MOL      0.111853
     87 H35        -2.5180   -5.0440    2.1340 hc        1 MOL      0.015096
     88 H36        -4.1040   -5.3140    1.3640 hc        1 MOL      0.015096
     89 H37        -3.5830   -2.6120    2.6590 hc        1 MOL      0.196974
     90 H38        -4.4260   -4.1010    3.2480 hc        1 MOL      0.196974
     91 H39        -6.2680   -4.6970    2.2240 hn        1 MOL      0.404137
     92 H40        -7.0130   -3.8000    0.8370 hn        1 MOL      0.404137
     93 N9         -3.5050   -3.1200   -1.6430 n         1 MOL     -0.284769
     94 C30        -4.0310   -2.9280   -3.0290 c3        1 MOL     -0.038560
     95 C31        -5.4730   -2.2380   -2.9630 c         1 MOL      0.475542
     96 O16        -6.1270   -2.1780   -3.9900 o         1 MOL     -0.560677
     97 C32        -3.0830   -2.0960   -3.9560 c3        1 MOL      0.071347
     98 C33        -1.9360   -2.9890   -4.4920 c3        1 MOL     -0.120344
     99 C34        -2.4840   -0.9280   -3.1590 c3        1 MOL     -0.120344
    100 H41        -3.3220   -2.3110   -1.0670 hn        1 MOL      0.248348
    101 H42        -4.2920   -3.8960   -3.4610 h1        1 MOL      0.106818
    102 H43        -3.7040   -1.7650   -4.7950 hc        1 MOL      0.038546
    103 H44        -1.4230   -3.4740   -3.6540 hc        1 MOL      0.020111
    104 H45        -2.3710   -3.8360   -5.0140 hc        1 MOL      0.020111
    105 H46        -1.3340   -2.4270   -5.2120 hc        1 MOL      0.020111
    106 H47        -3.2470   -0.2110   -2.8730 hc        1 MOL      0.020111
    107 H48        -1.8530   -1.2090   -2.3180 hc        1 MOL      0.020111
    108 H49        -1.8210   -0.4180   -3.8630 hc        1 MOL      0.020111
    109 N10        -5.8830   -1.5840   -1.8350 n         1 MOL     -0.152331
    110 C35        -7.1890   -0.9090   -1.8370 c3        1 MOL     -0.033146
    111 C36        -7.1890    0.5660   -1.5010 c         1 MOL      0.489965
    112 O17        -8.2240    1.2030   -1.7630 o         1 MOL     -0.568683
    113 C37        -8.0810   -1.6450   -0.8830 c3        1 MOL      0.019446
    114 C38        -8.3290   -3.0480   -1.3320 c         1 MOL      0.516586
    115 N11        -9.0070   -3.2420   -2.4610 n         1 MOL     -0.706743
    116 O18        -7.8470   -4.0080   -0.7190 o         1 MOL     -0.529892
    117 H50        -5.4490   -1.8820   -0.9860 hn        1 MOL      0.066990
    118 H51        -7.6570   -0.9490   -2.8200 h1        1 MOL      0.084232
    119 H52        -9.0830   -1.2220   -0.8630 hc        1 MOL     -0.010233
    120 H53        -7.6920   -1.6920    0.1390 hc        1 MOL     -0.010233
    121 H54        -9.4550   -2.4810   -2.9630 hn        1 MOL      0.350390
    122 H55        -9.1610   -4.2000   -2.7150 hn        1 MOL      0.350390
    123 N12        -6.1340    1.1090   -0.9730 n         1 MOL     -0.318194
    124 C39        -6.1080    2.4460   -0.3950 c3        1 MOL      0.026846
    125 C40        -4.6960    2.8910   -0.0220 c         1 MOL      0.426542
    126 O19        -3.7280    2.1260   -0.0110 o         1 MOL     -0.379189
    127 C41        -6.9940    2.4130    0.8680 c3        1 MOL      0.038611
    128 C42        -6.8810    1.1850    1.7820 ca        1 MOL      0.053242
    129 C43        -7.8930    0.2400    1.8590 ca        1 MOL     -0.216697
    130 C44        -5.7250    1.0450    2.6070 ca        1 MOL     -0.216697
    131 C45        -7.7950   -0.7680    2.8760 ca        1 MOL     -0.085288
    132 C46        -5.5630   -0.0420    3.4670 ca        1 MOL     -0.085288
    133 C47        -6.6550   -0.9280    3.6750 ca        1 MOL      0.124592
    134 O20        -6.3740   -1.8430    4.6550 oh        1 MOL     -0.384535
    135 H56        -5.3480    0.5450   -0.6780 hn        1 MOL      0.169142
    136 H57        -6.5240    3.1440   -1.1220 h1        1 MOL      0.072159
    137 H58        -8.0580    2.4930    0.6790 hc        1 MOL      0.014724
    138 H59        -6.8020    3.3050    1.4460 hc        1 MOL      0.014724
    139 H60        -8.7860    0.3380    1.2590 ha        1 MOL      0.129097
    140 H61        -4.9680    1.8130    2.5460 ha        1 MOL      0.129097
    141 H62        -8.6170   -1.4510    3.0350 ha        1 MOL      0.092102
    142 H63        -4.5650   -0.2370    3.8220 ha        1 MOL      0.092102
    143 H64        -7.1030   -2.4620    4.7680 ho        1 MOL      0.302916
    144 N13        -4.5790    4.2090    0.1560 n         1 MOL     -0.511904
    145 C48        -3.4280    5.0160    0.6110 c3        1 MOL      0.005514
    146 C49        -2.2250    5.1380   -0.3700 c         1 MOL      0.202810
    147 O21        -1.6350    6.2370   -0.5150 o         1 MOL     -0.500133
    148 C50        -2.8990    4.5750    1.9690 c3        1 MOL      0.186036
    149 C51        -3.8830    4.6010    3.1040 c3        1 MOL     -0.138898
    150 C52        -3.2980    4.0610    4.4240 c         1 MOL      0.576093
    151 O22        -2.8060    4.8980    5.2020 o         1 MOL     -0.657742
    152 O23        -3.3690    2.8320    4.6130 o         1 MOL     -0.657742
    153 H65        -5.4580    4.7010    0.0910 hn        1 MOL      0.298447
    154 H66        -3.8380    6.0310    0.6980 h1        1 MOL      0.074350
    155 H67        -2.0900    5.2560    2.2150 hc        1 MOL      0.018427
    156 H68        -2.4220    3.6020    1.8210 hc        1 MOL      0.018427
    157 H69        -4.7180    3.9670    2.7880 hc        1 MOL     -0.014439
    158 H70        -4.2090    5.6330    3.1740 hc        1 MOL     -0.014439
    159 N14        -1.9120    4.0370   -0.9880 n         1 MOL      0.168420
    160 C53        -0.8440    3.9160   -1.9320 c3        1 MOL     -0.172063
    161 C54        -1.0650    4.5850   -3.3120 c         1 MOL      0.354042
    162 O24        -0.1790    5.1530   -3.9590 o         1 MOL     -0.496481
    163 C55        -0.3000    2.5230   -2.1240 c3        1 MOL      0.042118
    164 C56        -0.1490    1.8040   -0.8500 c3        1 MOL      0.372767
    165 C57         0.9020    2.3780    0.1110 c         1 MOL      0.452249
    166 O25         0.6970    3.3720    0.8650 o         1 MOL     -0.620956
    167 O26         2.0300    1.8050    0.1730 o         1 MOL     -0.620956
    168 H71        -2.3760    3.1860   -0.7330 hn        1 MOL      0.081098
    169 H72        -0.1250    4.6760   -1.6220 h1        1 MOL      0.177270
    170 H73         0.5910    2.4740   -2.7450 hc        1 MOL     -0.015824
    171 H74        -1.0590    1.9220   -2.6280 hc        1 MOL     -0.015824
    172 H75         0.1250    0.7560   -1.0080 hc        1 MOL     -0.162393
    173 H76        -1.0780    1.7510   -0.2880 hc        1 MOL     -0.162393
    174 N15        -2.3590    4.7850   -3.6520 n         1 MOL     -0.202686
    175 C58        -2.9200    5.7450   -4.6590 c3        1 MOL     -0.204391
    176 H77        -3.7790    6.2600   -4.2300 h1        1 MOL      0.091431
    177 H78        -2.1580    6.4750   -4.9300 h1        1 MOL      0.091431
    178 H79        -3.2320    5.1980   -5.5490 h1        1 MOL      0.091431
    179 H80        -3.1040    4.3740   -3.1180 hn        1 MOL      0.166106
    180 Ca1         4.3460    1.4720    1.1660 Ca        1 MOL      1.748685
    181 O27         5.4100    2.9580    3.1790 oh        1 MOL     -0.876884
    182 H81         4.8900    3.6910    3.4990 ho        1 MOL      0.400112
    183 H82         5.9270    3.3240    2.4680 ho        1 MOL      0.400112
    184 O28         6.0510   -0.1790    2.4190 oh        1 MOL     -0.876884
    185 H83         6.1140   -0.2850    3.3650 ho        1 MOL      0.400112
    186 H84         6.8700   -0.5430    2.0750 ho        1 MOL      0.400112
    187 O29         3.0400    4.0080    1.8770 oh        1 MOL     -0.876884
    188 H85         2.5960    4.2450    2.6930 ho        1 MOL      0.400112
    189 H86         2.3390    3.6760    1.3120 ho        1 MOL      0.400112
@<TRIPOS>BOND
     1    1    2 1   
     2    1    4 1   
     3    1    5 1   
     4    1    6 1   
     5    2    3 2   
     6    2    7 1   
     7    7    8 1   
     8    7   15 1   
     9    8    9 1   
    10    8   11 1   
    11    8   16 1   
    12    9   10 2   
    13    9   19 1   
    14   11   12 1   
    15   11   17 1   
    16   11   18 1   
    17   12   13 1   
    18   12   14 1   
    19   19   20 1   
    20   19   27 1   
    21   20   21 1   
    22   20   23 1   
    23   20   28 1   
    24   21   22 2   
    25   21   38 1   
    26   23   24 1   
    27   23   25 1   
    28   23   29 1   
    29   24   26 1   
    30   24   30 1   
    31   24   31 1   
    32   25   32 1   
    33   25   33 1   
    34   25   34 1   
    35   26   35 1   
    36   26   36 1   
    37   26   37 1   
    38   38   39 1   
    39   38   46 1   
    40   39   40 1   
    41   39   42 1   
    42   39   47 1   
    43   40   41 2   
    44   40   50 1   
    45   42   43 1   
    46   42   48 1   
    47   42   49 1   
    48   43   44 1   
    49   43   45 1   
    50   50   51 1   
    51   50   54 1   
    52   51   52 1   
    53   51   55 1   
    54   51   56 1   
    55   52   53 2   
    56   52   57 1   
    57   57   58 1   
    58   57   65 1   
    59   58   59 1   
    60   58   61 1   
    61   58   66 1   
    62   59   60 2   
    63   59   69 1   
    64   61   62 1   
    65   61   67 1   
    66   61   68 1   
    67   62   63 1   
    68   62   64 1   
    69   69   70 1   
    70   69   73 1   
    71   70   71 1   
    72   70   74 1   
    73   70   75 1   
    74   71   72 2   
    75   71   76 1   
    76   76   77 1   
    77   76   85 1   
    78   77   78 1   
    79   77   80 1   
    80   77   86 1   
    81   78   79 2   
    82   78   93 1   
    83   80   81 1   
    84   80   87 1   
    85   80   88 1   
    86   81   82 1   
    87   81   89 1   
    88   81   90 1   
    89   82   83 1   
    90   82   84 2   
    91   83   91 1   
    92   83   92 1   
    93   93   94 1   
    94   93  100 1   
    95   94   95 1   
    96   94   97 1   
    97   94  101 1   
    98   95   96 2   
    99   95  109 1   
   100   97   98 1   
   101   97   99 1   
   102   97  102 1   
   103   98  103 1   
   104   98  104 1   
   105   98  105 1   
   106   99  106 1   
   107   99  107 1   
   108   99  108 1   
   109  109  110 1   
   110  109  117 1   
   111  110  111 1   
   112  110  113 1   
   113  110  118 1   
   114  111  112 2   
   115  111  123 1   
   116  113  114 1   
   117  113  119 1   
   118  113  120 1   
   119  114  115 1   
   120  114  116 2   
   121  115  121 1   
   122  115  122 1   
   123  123  124 1   
   124  123  135 1   
   125  124  125 1   
   126  124  127 1   
   127  124  136 1   
   128  125  126 2   
   129  125  144 1   
   130  127  128 1   
   131  127  137 1   
   132  127  138 1   
   133  128  129 ar  
   134  128  130 ar  
   135  129  131 ar  
   136  129  139 1   
   137  130  132 ar  
   138  130  140 1   
   139  131  133 ar  
   140  131  141 1   
   141  132  133 ar  
   142  132  142 1   
   143  133  134 1   
   144  134  143 1   
   145  144  145 1   
   146  144  153 1   
   147  145  146 1   
   148  145  148 1   
   149  145  154 1   
   150  146  147 2   
   151  146  159 1   
   152  148  149 1   
   153  148  155 1   
   154  148  156 1   
   155  149  150 1   
   156  149  157 1   
   157  149  158 1   
   158  150  151 1   
   159  150  152 1   
   160  159  160 1   
   161  159  168 1   
   162  160  161 1   
   163  160  163 1   
   164  160  169 1   
   165  161  162 2   
   166  161  174 1   
   167  163  164 1   
   168  163  170 1   
   169  163  171 1   
   170  164  165 1   
   171  164  172 1   
   172  164  173 1   
   173  165  166 1   
   174  165  167 1   
   175  174  175 1   
   176  174  179 1   
   177  175  176 1   
   178  175  177 1   
   179  175  178 1   
   180  181  182 1   
   181  181  183 1   
   182  184  185 1   
   183  184  186 1   
   184  187  188 1   
   185  187  189 1   
@<TRIPOS>SUBSTRUCTURE
     1 MOL         1 TEMP              0 ****  ****    0 ROOT
