@<TRIPOS>MOLECULE
MOL
  181   177     1     0     0
SMALL
resp


@<TRIPOS>ATOM
      1 C1          6.9090    3.1200    5.2880 c3        1 MOL     -0.414694
      2 C2          6.0170    2.1980    4.4230 c         1 MOL      0.772246
      3 O1          4.7910    2.3170    4.4900 o         1 MOL     -0.581721
      4 H1          7.8400    2.6050    5.5260 hc        1 MOL      0.107175
      5 H2          7.1300    4.0340    4.7370 hc        1 MOL      0.107175
      6 H3          6.3870    3.3690    6.2120 hc        1 MOL      0.107175
      7 N1          6.4840    1.2560    3.5490 n         1 MOL     -0.601577
      8 C3          7.9070    1.0570    3.2370 c3        1 MOL      0.002947
      9 C4          8.2330   -0.4470    3.1120 c         1 MOL      0.564530
     10 O2          7.6060   -1.2660    3.8060 o         1 MOL     -0.468620
     11 C5          8.2660    1.9310    2.0060 c3        1 MOL     -0.230412
     12 C6          7.4020    1.6630    0.7870 c         1 MOL      0.747978
     13 O3          6.7700    2.5510    0.2480 o         1 MOL     -0.701331
     14 O4          7.4070    0.5230    0.2950 o         1 MOL     -0.701331
     15 H4          5.8330    0.6110    3.1140 hn        1 MOL      0.344766
     16 H5          8.4920    1.4220    4.1000 h1        1 MOL      0.081623
     17 H6          9.3010    1.7770    1.7170 hc        1 MOL      0.043015
     18 H7          8.1180    2.9610    2.3210 hc        1 MOL      0.043015
     19 N2          9.1490   -0.8450    2.2530 n         1 MOL     -0.677320
     20 C7          9.4910   -2.2270    1.7880 c3        1 MOL      0.413708
     21 C8          8.2560   -3.0250    1.4690 c         1 MOL      0.156735
     22 O5          8.2130   -4.2240    1.7230 o         1 MOL     -0.495585
     23 C9         10.4980   -2.9520    2.7660 c3        1 MOL     -0.392956
     24 H8          9.5630   -0.1380    1.6490 hn        1 MOL      0.352658
     25 H9         10.0170   -2.0380    0.8540 h1        1 MOL      0.003891
     26 H10        10.0320   -3.2270    3.7020 hc        1 MOL      0.105364
     27 H11        10.8520   -3.8980    2.3440 hc        1 MOL      0.105364
     28 H12        11.4050   -2.3370    2.7810 hc        1 MOL      0.105364
     29 N3          7.2140   -2.3860    0.9750 n         1 MOL      0.149366
     30 C10         5.9570   -2.9470    0.4010 c3        1 MOL     -0.016053
     31 C11         5.7380   -2.7540   -1.1320 c         1 MOL      0.254759
     32 O6          6.0480   -1.7120   -1.6360 o         1 MOL     -0.504396
     33 C12         4.7030   -2.7300    1.2680 c3        1 MOL      0.019807
     34 C13         4.3310   -1.3450    1.6330 c         1 MOL      0.594182
     35 O7          3.6730   -1.1300    2.6580 o         1 MOL     -0.661821
     36 O8          4.6920   -0.4220    0.9020 o         1 MOL     -0.661821
     37 H13         7.3780   -1.3970    0.8420 hn        1 MOL      0.001567
     38 H14         6.0600   -4.0300    0.4160 h1        1 MOL     -0.011813
     39 H15         4.9440   -3.2770    2.1760 hc        1 MOL      0.022712
     40 H16         3.8720   -3.2390    0.7780 hc        1 MOL      0.022712
     41 N4          5.2910   -3.8330   -1.7780 n         1 MOL     -0.162012
     42 C14         5.0250   -3.8220   -3.1890 c3        1 MOL     -0.282291
     43 C15         3.6510   -3.3060   -3.6350 c         1 MOL      0.701165
     44 O9          3.3060   -3.4300   -4.7790 o         1 MOL     -0.582601
     45 H17         5.1030   -4.6590   -1.2310 hn        1 MOL      0.279511
     46 H18         5.1200   -4.8600   -3.5110 h1        1 MOL      0.119467
     47 H19         5.7380   -3.2080   -3.7410 h1        1 MOL      0.119467
     48 N5          2.9340   -2.6710   -2.7180 n         1 MOL     -0.551263
     49 C16         1.7970   -1.8200   -2.9860 c3        1 MOL      0.305488
     50 C17         1.9930   -0.3670   -2.4720 c         1 MOL      0.823295
     51 O10         3.0360   -0.1130   -1.8200 o         1 MOL     -0.712450
     52 C18         0.5380   -2.4480   -2.3730 c3        1 MOL     -0.689367
     53 C19         0.2160   -3.8430   -3.0190 c         1 MOL      0.900072
     54 N6         -0.1980   -3.9460   -4.2320 n         1 MOL     -0.828114
     55 O11         0.4670   -4.8420   -2.4380 o         1 MOL     -0.580354
     56 H20         3.3440   -2.5360   -1.8080 hn        1 MOL      0.299045
     57 H21         1.6090   -1.7670   -4.0600 h1        1 MOL     -0.005638
     58 H22        -0.3830   -1.8650   -2.4450 hc        1 MOL      0.174040
     59 H23         0.7810   -2.5430   -1.3090 hc        1 MOL      0.174040
     60 H24        -0.2960   -3.1340   -4.8310 hn        1 MOL      0.370711
     61 H25        -0.5190   -4.8360   -4.5890 hn        1 MOL      0.370711
     62 N7          1.1050    0.5870   -2.6680 n         1 MOL     -0.953710
     63 C20         1.0780    1.9140   -1.9860 c3        1 MOL      0.824729
     64 C21         1.3850    3.0280   -2.9400 c         1 MOL      0.366228
     65 O12         1.8070    2.8980   -4.1230 o         1 MOL     -0.572812
     66 H26         0.2780    0.4200   -3.2070 hn        1 MOL      0.401052
     67 H27         1.6980    1.8890   -1.0850 h1        1 MOL     -0.094837
     68 H28         0.0430    2.0360   -1.6780 h1        1 MOL     -0.094837
     69 N8          1.1750    4.2950   -2.5810 n         1 MOL     -0.448404
     70 C22         0.7350    4.8210   -1.2520 c3        1 MOL     -0.159018
     71 C23        -0.6700    4.2310   -0.8850 c         1 MOL      0.663103
     72 O13        -1.4700    4.1630   -1.7650 o         1 MOL     -0.515749
     73 C24         0.7830    6.3380   -1.0600 c3        1 MOL      0.427614
     74 C25         2.2480    6.8400   -0.7800 c3        1 MOL     -0.351792
     75 O14         0.2400    7.0950   -2.0830 oh        1 MOL     -0.624066
     76 H29         1.2460    5.0240   -3.2700 hn        1 MOL      0.352823
     77 H30         1.4370    4.4280   -0.5230 h1        1 MOL      0.042404
     78 H31         0.1870    6.6110   -0.1940 h1        1 MOL      0.008796
     79 H32        -0.5630    7.4690   -1.7290 ho        1 MOL      0.422596
     80 H33         2.3250    7.9070   -0.5470 hc        1 MOL      0.088025
     81 H34         2.7270    6.2590   -0.0010 hc        1 MOL      0.088025
     82 H35         2.9330    6.7000   -1.6230 hc        1 MOL      0.088025
     83 N9         -0.7520    3.7750    0.3810 n         1 MOL     -0.730344
     84 C26        -2.0650    3.1440    0.7600 c3        1 MOL      0.123621
     85 C27        -2.9130    4.2790    1.2490 c         1 MOL      0.711762
     86 O15        -2.5770    5.0490    2.1300 o         1 MOL     -0.618791
     87 C28        -1.8050    1.9690    1.7820 c3        1 MOL     -0.066783
     88 C29        -0.9920    0.8490    1.1600 c3        1 MOL     -0.057393
     89 C30        -3.1350    1.3220    2.2870 c3        1 MOL     -0.301836
     90 C31        -1.3490    0.0670   -0.0760 c3        1 MOL      0.010953
     91 H36         0.0380    3.9040    1.0030 hn        1 MOL      0.357260
     92 H37        -2.4930    2.7050   -0.1490 h1        1 MOL      0.117684
     93 H38        -1.2370    2.3590    2.6250 hc        1 MOL      0.080325
     94 H39        -0.7150    0.0520    1.8600 hc        1 MOL      0.031320
     95 H40        -0.0080    1.2670    0.9570 hc        1 MOL      0.031320
     96 H41        -2.9180    0.7020    3.1540 hc        1 MOL      0.094269
     97 H42        -3.9020    2.0170    2.6410 hc        1 MOL      0.094269
     98 H43        -3.6700    0.6890    1.5840 hc        1 MOL      0.094269
     99 H44        -2.1790   -0.6020    0.1460 hc        1 MOL      0.009424
    100 H45        -1.6700    0.6110   -0.9780 hc        1 MOL      0.009424
    101 H46        -0.4550   -0.4540   -0.3900 hc        1 MOL      0.009424
    102 N10        -4.1710    4.3480    0.8010 n         1 MOL     -0.610146
    103 C32        -4.9410    3.5180   -0.1700 c3        1 MOL      0.004563
    104 C33        -6.2000    2.7980    0.4290 c         1 MOL      0.615364
    105 O16        -6.5530    2.9420    1.6350 o         1 MOL     -0.552337
    106 C34        -5.2610    4.4710   -1.3560 c3        1 MOL     -0.048418
    107 C35        -5.9360    5.6960   -0.9390 c         1 MOL      0.673419
    108 O17        -5.2810    6.7070   -1.0610 o         1 MOL     -0.716969
    109 O18        -7.0830    5.6660   -0.4350 o         1 MOL     -0.716969
    110 H47        -4.6930    5.1670    1.0800 hn        1 MOL      0.381690
    111 H48        -4.3020    2.7780   -0.6410 h1        1 MOL      0.045568
    112 H49        -5.8760    3.8640   -2.0290 hc        1 MOL     -0.012369
    113 H50        -4.3350    4.6780   -1.9060 hc        1 MOL     -0.012369
    114 N11        -6.7730    1.8670   -0.3070 n         1 MOL     -0.686902
    115 C36        -7.6560    0.7340    0.1180 c3        1 MOL      0.369823
    116 C37        -7.7930   -0.2660   -1.0680 c         1 MOL      0.314738
    117 O19        -8.0890    0.1750   -2.1950 o         1 MOL     -0.519070
    118 C38        -9.0220    1.1100    0.6680 c3        1 MOL     -0.085021
    119 C39        -9.5630    0.0230    1.5590 ca        1 MOL     -0.011355
    120 C40       -10.4510   -0.9620    1.0160 ca        1 MOL     -0.122697
    121 C41        -9.1550   -0.0660    2.8940 ca        1 MOL     -0.122697
    122 C42       -10.7290   -2.0670    1.7290 ca        1 MOL     -0.110776
    123 C43        -9.5260   -1.1660    3.7130 ca        1 MOL     -0.110776
    124 C44       -10.3330   -2.1750    3.0980 ca        1 MOL     -0.173922
    125 H51        -6.5210    1.8450   -1.2930 hn        1 MOL      0.349814
    126 H52        -7.1260    0.2810    0.9550 h1        1 MOL      0.019939
    127 H53        -9.7220    1.2930   -0.1520 hc        1 MOL      0.063761
    128 H54        -9.0460    2.0680    1.1850 hc        1 MOL      0.063761
    129 H55       -10.7570   -0.8550   -0.0130 ha        1 MOL      0.113700
    130 H56        -8.4850    0.6690    3.3060 ha        1 MOL      0.113700
    131 H57       -11.4070   -2.8370    1.4130 ha        1 MOL      0.107908
    132 H58        -9.0920   -1.1860    4.6990 ha        1 MOL      0.107908
    133 H59       -10.5510   -3.0400    3.7070 ha        1 MOL      0.107873
    134 N12        -7.6220   -1.6030   -0.8500 n         1 MOL      0.003326
    135 C45        -7.1740   -2.2780    0.3480 c3        1 MOL     -0.021370
    136 C46        -5.6710   -2.1180    0.5490 c         1 MOL      0.334925
    137 O20        -5.1130   -1.0430    0.2530 o         1 MOL     -0.529450
    138 C47        -7.5300   -3.7430    0.1160 c3        1 MOL     -0.018342
    139 C48        -8.6980   -3.6990   -0.8990 c3        1 MOL      0.117356
    140 C49        -8.2400   -2.5020   -1.7620 c3        1 MOL     -0.270262
    141 H60        -7.4710   -1.8740    1.3160 h1        1 MOL      0.049724
    142 H61        -6.7010   -4.3260   -0.2800 hc        1 MOL      0.010998
    143 H62        -7.8740   -4.2500    1.0240 hc        1 MOL      0.010998
    144 H63        -8.8820   -4.6530   -1.3810 hc        1 MOL     -0.014224
    145 H64        -9.6630   -3.4680   -0.4560 hc        1 MOL     -0.014224
    146 H65        -7.4380   -2.8680   -2.3990 h1        1 MOL      0.118778
    147 H66        -8.9670   -2.1550   -2.4930 h1        1 MOL      0.118778
    148 N13        -4.9710   -3.2070    0.9340 n         1 MOL     -0.100249
    149 C50        -3.4810   -3.1360    1.1220 c3        1 MOL      0.118184
    150 C51        -2.9930   -3.8270    2.4320 c         1 MOL      0.392839
    151 O21        -2.0340   -4.5870    2.4010 o         1 MOL     -0.516574
    152 C52        -2.7530   -3.5750   -0.1650 c3        1 MOL      0.136760
    153 C53        -2.7960   -5.0310   -0.5300 c3        1 MOL     -0.347714
    154 C54        -4.2040   -5.3960   -1.0560 c         1 MOL      0.800403
    155 O22        -4.9080   -6.0780   -0.2880 o         1 MOL     -0.746617
    156 O23        -4.5170   -5.1230   -2.2440 o         1 MOL     -0.746617
    157 H67        -5.4070   -4.0870    1.1370 hn        1 MOL      0.164601
    158 H68        -3.3830   -2.0710    1.3060 h1        1 MOL      0.055605
    159 H69        -1.7290   -3.2160   -0.0950 hc        1 MOL     -0.042362
    160 H70        -3.1540   -2.9380   -0.9610 hc        1 MOL     -0.042362
    161 H71        -2.3540   -5.6450    0.2470 hc        1 MOL      0.072862
    162 H72        -2.1280   -5.1780   -1.3730 hc        1 MOL      0.072862
    163 N14        -3.6470   -3.5990    3.5570 n         1 MOL     -0.382226
    164 C55        -4.6900   -2.6250    4.0630 c3        1 MOL     -0.007038
    165 H73        -5.6650   -2.8940    3.6570 h1        1 MOL      0.045909
    166 H74        -4.7280   -2.6650    5.1520 h1        1 MOL      0.045909
    167 H75        -4.4310   -1.6160    3.7450 h1        1 MOL      0.045909
    168 H76        -3.1920   -4.0910    4.3130 hn        1 MOL      0.263405
    169 Ca1         5.3870    0.7990   -1.2900 Ca        1 MOL      1.728465
    170 O24         4.3390    2.5000   -3.0610 oh        1 MOL     -0.812175
    171 H77         4.3440    3.4490   -2.9780 ho        1 MOL      0.398665
    172 H78         3.6900    2.3230   -3.7490 ho        1 MOL      0.398665
    173 O25         5.4400   -0.1810   -4.0470 oh        1 MOL     -0.812175
    174 H79         4.7980   -0.3290   -4.7320 ho        1 MOL      0.398665
    175 H80         6.2770   -0.4380   -4.4290 ho        1 MOL      0.398665
    176 O26         4.0250    2.6370   -0.0200 oh        1 MOL     -0.812175
    177 H81         4.6630    3.0600    0.5490 ho        1 MOL      0.398665
    178 H82         3.4480    2.1720    0.5840 ho        1 MOL      0.398665
    179 O27         7.5420    1.3880   -2.6670 oh        1 MOL     -0.812175
    180 H83         7.5350    1.4010   -3.6160 ho        1 MOL      0.398665
    181 H84         8.4450    1.1670   -2.4300 ho        1 MOL      0.398665
@<TRIPOS>BOND
     1    1    2 1   
     2    1    4 1   
     3    1    5 1   
     4    1    6 1   
     5    2    3 2   
     6    2    7 1   
     7    7    8 1   
     8    7   15 1   
     9    8    9 1   
    10    8   11 1   
    11    8   16 1   
    12    9   10 2   
    13    9   19 1   
    14   11   12 1   
    15   11   17 1   
    16   11   18 1   
    17   12   13 1   
    18   12   14 1   
    19   19   20 1   
    20   19   24 1   
    21   20   21 1   
    22   20   23 1   
    23   20   25 1   
    24   21   22 2   
    25   21   29 1   
    26   23   26 1   
    27   23   27 1   
    28   23   28 1   
    29   29   30 1   
    30   29   37 1   
    31   30   31 1   
    32   30   33 1   
    33   30   38 1   
    34   31   32 2   
    35   31   41 1   
    36   33   34 1   
    37   33   39 1   
    38   33   40 1   
    39   34   35 1   
    40   34   36 1   
    41   41   42 1   
    42   41   45 1   
    43   42   43 1   
    44   42   46 1   
    45   42   47 1   
    46   43   44 2   
    47   43   48 1   
    48   48   49 1   
    49   48   56 1   
    50   49   50 1   
    51   49   52 1   
    52   49   57 1   
    53   50   51 2   
    54   50   62 1   
    55   52   53 1   
    56   52   58 1   
    57   52   59 1   
    58   53   54 1   
    59   53   55 2   
    60   54   60 1   
    61   54   61 1   
    62   62   63 1   
    63   62   66 1   
    64   63   64 1   
    65   63   67 1   
    66   63   68 1   
    67   64   65 2   
    68   64   69 1   
    69   69   70 1   
    70   69   76 1   
    71   70   71 1   
    72   70   73 1   
    73   70   77 1   
    74   71   72 2   
    75   71   83 1   
    76   73   74 1   
    77   73   75 1   
    78   73   78 1   
    79   74   80 1   
    80   74   81 1   
    81   74   82 1   
    82   75   79 1   
    83   83   84 1   
    84   83   91 1   
    85   84   85 1   
    86   84   87 1   
    87   84   92 1   
    88   85   86 2   
    89   85  102 1   
    90   87   88 1   
    91   87   89 1   
    92   87   93 1   
    93   88   90 1   
    94   88   94 1   
    95   88   95 1   
    96   89   96 1   
    97   89   97 1   
    98   89   98 1   
    99   90   99 1   
   100   90  100 1   
   101   90  101 1   
   102  102  103 1   
   103  102  110 1   
   104  103  104 1   
   105  103  106 1   
   106  103  111 1   
   107  104  105 2   
   108  104  114 1   
   109  106  107 1   
   110  106  112 1   
   111  106  113 1   
   112  107  108 1   
   113  107  109 1   
   114  114  115 1   
   115  114  125 1   
   116  115  116 1   
   117  115  118 1   
   118  115  126 1   
   119  116  117 2   
   120  116  134 1   
   121  118  119 1   
   122  118  127 1   
   123  118  128 1   
   124  119  120 ar  
   125  119  121 ar  
   126  120  122 ar  
   127  120  129 1   
   128  121  123 ar  
   129  121  130 1   
   130  122  124 ar  
   131  122  131 1   
   132  123  124 ar  
   133  123  132 1   
   134  124  133 1   
   135  134  135 1   
   136  134  140 1   
   137  135  136 1   
   138  135  138 1   
   139  135  141 1   
   140  136  137 2   
   141  136  148 1   
   142  138  139 1   
   143  138  142 1   
   144  138  143 1   
   145  139  140 1   
   146  139  144 1   
   147  139  145 1   
   148  140  146 1   
   149  140  147 1   
   150  148  149 1   
   151  148  157 1   
   152  149  150 1   
   153  149  152 1   
   154  149  158 1   
   155  150  151 2   
   156  150  163 1   
   157  152  153 1   
   158  152  159 1   
   159  152  160 1   
   160  153  154 1   
   161  153  161 1   
   162  153  162 1   
   163  154  155 1   
   164  154  156 1   
   165  163  164 1   
   166  163  168 1   
   167  164  165 1   
   168  164  166 1   
   169  164  167 1   
   170  170  171 1   
   171  170  172 1   
   172  173  174 1   
   173  173  175 1   
   174  176  177 1   
   175  176  178 1   
   176  179  180 1   
   177  179  181 1   
@<TRIPOS>SUBSTRUCTURE
     1 MOL         1 TEMP              0 ****  ****    0 ROOT
