@<TRIPOS>MOLECULE
MOL
  175   173     1     0     0
SMALL
resp


@<TRIPOS>ATOM
      1 C1         -6.6840    7.7840    1.7940 c3        1 MOL     -0.313180
      2 C2         -7.4690    6.9090    0.7960 c         1 MOL      0.738711
      3 O1         -7.4640    7.2170   -0.3740 o         1 MOL     -0.596371
      4 H1         -5.8300    7.2240    2.1740 hc        1 MOL      0.069786
      5 H2         -6.3330    8.6850    1.2900 hc        1 MOL      0.069786
      6 H3         -7.3350    8.0610    2.6240 hc        1 MOL      0.069786
      7 N1         -8.1090    5.7770    1.1350 n         1 MOL     -0.635034
      8 C3         -9.1070    5.1220    0.2380 c3        1 MOL      0.421246
      9 C4         -8.5250    3.9100   -0.6340 c         1 MOL      0.519949
     10 O2         -9.2010    3.3720   -1.5020 o         1 MOL     -0.518879
     11 C5        -10.2700    4.6250    1.1280 c3        1 MOL     -0.389376
     12 C6        -11.6050    4.4850    0.2410 c         1 MOL      0.681296
     13 O3        -12.4020    3.5390    0.4100 o         1 MOL     -0.703036
     14 O4        -11.7970    5.3190   -0.6810 o         1 MOL     -0.703036
     15 H4         -8.0350    5.5370    2.1100 hn        1 MOL      0.281883
     16 H5         -9.4960    5.8680   -0.4570 h1        1 MOL     -0.005684
     17 H6        -10.3910    5.2790    1.9890 hc        1 MOL      0.047148
     18 H7         -9.9420    3.6720    1.5500 hc        1 MOL      0.047148
     19 N2         -7.2810    3.6020   -0.3630 n         1 MOL     -0.613842
     20 C7         -6.4570    2.6680   -1.0430 c3        1 MOL      0.362867
     21 C8         -5.3150    2.0430   -0.2110 c         1 MOL      0.433533
     22 O5         -4.8140    2.8020    0.6490 o         1 MOL     -0.534694
     23 C9         -5.7700    3.5380   -2.0810 c3        1 MOL     -0.169084
     24 H8         -6.8030    4.2280    0.2700 hn        1 MOL      0.266830
     25 H9         -7.0580    1.9260   -1.5530 h1        1 MOL      0.012061
     26 H10        -6.5330    4.0060   -2.6920 hc        1 MOL      0.046855
     27 H11        -5.0830    4.3020   -1.7090 hc        1 MOL      0.046855
     28 H12        -5.2850    2.8310   -2.7560 hc        1 MOL      0.046855
     29 N3         -5.1120    0.7350   -0.3310 n         1 MOL     -0.407131
     30 C10        -5.6010   -0.2560   -1.2570 c3        1 MOL     -0.024364
     31 C11        -5.7560   -1.6150   -0.6380 c         1 MOL      0.417912
     32 O6         -4.8920   -1.9750    0.1690 o         1 MOL     -0.450271
     33 C12        -4.5880   -0.3160   -2.4730 c3        1 MOL     -0.033968
     34 C13        -3.1090   -0.5670   -2.0770 c         1 MOL      0.646025
     35 O7         -2.4440    0.2820   -1.4060 o         1 MOL     -0.717487
     36 O8         -2.4710   -1.6070   -2.5090 o         1 MOL     -0.717487
     37 H13        -4.5190    0.4240    0.4240 hn        1 MOL      0.304669
     38 H14        -6.5540    0.0740   -1.6750 h1        1 MOL      0.049830
     39 H15        -4.5330    0.5960   -3.0630 hc        1 MOL      0.015510
     40 H16        -4.9200   -1.0230   -3.2320 hc        1 MOL      0.015510
     41 N4         -6.7440   -2.3640   -1.0570 n         1 MOL     -0.330719
     42 C14        -6.8310   -3.7820   -0.6760 c3        1 MOL     -0.038312
     43 C15        -6.5190   -4.7450   -1.7570 c         1 MOL      0.512822
     44 O9         -7.3970   -5.0150   -2.5810 o         1 MOL     -0.558968
     45 H17        -7.3900   -2.1490   -1.8020 hn        1 MOL      0.305993
     46 H18        -7.7990   -3.8780   -0.1780 h1        1 MOL      0.066334
     47 H19        -6.2000   -3.9940    0.1850 h1        1 MOL      0.066334
     48 N5         -5.3120   -5.2680   -1.8540 n         1 MOL     -0.442038
     49 C16        -4.0670   -4.7880   -1.2890 c3        1 MOL      0.139681
     50 C17        -3.8200   -5.4420    0.0860 c         1 MOL      0.355946
     51 O10        -3.7210   -6.6420    0.3130 o         1 MOL     -0.513282
     52 C18        -2.9160   -5.0420   -2.3030 c3        1 MOL     -0.045600
     53 C19        -1.6440   -4.4160   -1.8920 c         1 MOL      0.567485
     54 N6         -0.6260   -4.4110   -2.7360 n         1 MOL     -0.699522
     55 O11        -1.4860   -3.8430   -0.7980 o         1 MOL     -0.593545
     56 H20        -5.2690   -6.0520   -2.4960 hn        1 MOL      0.282454
     57 H21        -4.1490   -3.7150   -1.1270 h1        1 MOL      0.090049
     58 H22        -3.2380   -4.5340   -3.2110 hc        1 MOL      0.035869
     59 H23        -2.7990   -6.1060   -2.5200 hc        1 MOL      0.035869
     60 H24        -0.8320   -4.6460   -3.6900 hn        1 MOL      0.334699
     61 H25         0.2270   -3.9120   -2.4950 hn        1 MOL      0.334699
     62 N7         -3.5500   -4.5650    1.1200 n         1 MOL     -0.061792
     63 C20        -3.3130   -4.9000    2.5550 c3        1 MOL     -0.344993
     64 C21        -1.8010   -5.1880    2.8400 c         1 MOL      0.695103
     65 O12        -1.5130   -5.8430    3.8180 o         1 MOL     -0.594604
     66 H26        -3.6440   -3.5950    0.8830 hn        1 MOL      0.130222
     67 H27        -3.8580   -5.8200    2.7750 h1        1 MOL      0.124713
     68 H28        -3.6400   -4.0540    3.1530 h1        1 MOL      0.124713
     69 N8         -0.8720   -4.7000    2.0230 n         1 MOL     -0.373713
     70 C22         0.5810   -4.8350    2.2730 c3        1 MOL     -0.144019
     71 C23         1.1540   -3.4230    2.0090 c         1 MOL      0.403461
     72 O13         0.6780   -2.6260    1.2180 o         1 MOL     -0.399853
     73 C24         1.2900   -5.8350    1.3090 c3        1 MOL      0.333450
     74 C25         0.9250   -7.2330    1.7930 c3        1 MOL     -0.491132
     75 O14         0.7030   -5.7280   -0.0060 oh        1 MOL     -0.489920
     76 H29        -1.1590   -4.3130    1.1370 hn        1 MOL      0.342090
     77 H30         0.6990   -5.1720    3.2980 h1        1 MOL      0.125761
     78 H31         2.3720   -5.7020    1.2320 h1        1 MOL      0.048134
     79 H32         0.8180   -4.7980   -0.2080 ho        1 MOL      0.239100
     80 H33         1.4790   -7.8710    1.1010 hc        1 MOL      0.132559
     81 H34         1.3440   -7.5410    2.7510 hc        1 MOL      0.132559
     82 H35        -0.1380   -7.4710    1.7200 hc        1 MOL      0.132559
     83 N9          2.1800   -3.0340    2.8200 n         1 MOL     -0.349524
     84 C26         3.1500   -2.0330    2.4120 c3        1 MOL     -0.062453
     85 C27         4.1940   -2.5230    1.3880 c         1 MOL      0.558177
     86 O15         5.0940   -3.3260    1.6330 o         1 MOL     -0.567061
     87 C28         3.7670   -1.4420    3.6410 c3        1 MOL      0.218587
     88 C29         2.7540   -0.5730    4.4070 c3        1 MOL      0.036395
     89 C30         4.3400   -2.4840    4.6230 c3        1 MOL     -0.357908
     90 C31         3.3190    0.1060    5.6870 c3        1 MOL     -0.282726
     91 H36         2.6580   -3.7680    3.3250 hn        1 MOL      0.218540
     92 H37         2.5690   -1.2290    1.9510 h1        1 MOL     -0.018831
     93 H38         4.5590   -0.7880    3.2760 hc        1 MOL     -0.009443
     94 H39         1.9090   -1.2150    4.6440 hc        1 MOL      0.024128
     95 H40         2.4410    0.2250    3.7330 hc        1 MOL      0.024128
     96 H41         5.0710   -3.0210    4.0160 hc        1 MOL      0.082118
     97 H42         4.9380   -2.0650    5.4220 hc        1 MOL      0.082118
     98 H43         3.5600   -3.1020    5.0760 hc        1 MOL      0.082118
     99 H44         3.2740   -0.4910    6.5960 hc        1 MOL      0.063344
    100 H45         4.3530    0.4050    5.5230 hc        1 MOL      0.063344
    101 H46         2.7190    1.0060    5.8310 hc        1 MOL      0.063344
    102 N10         4.0350   -2.1360    0.1000 n         1 MOL     -0.421504
    103 C32         4.7660   -2.6360   -1.1250 c3        1 MOL      0.230769
    104 C33         5.6200   -1.5440   -1.6920 c         1 MOL      0.483785
    105 O16         5.7500   -1.4030   -2.9150 o         1 MOL     -0.537777
    106 C34         3.7140   -3.2110   -2.0850 c3        1 MOL     -0.175398
    107 C35         2.4520   -2.2840   -2.4020 c         1 MOL      0.771110
    108 O17         1.4390   -2.5010   -1.7660 o         1 MOL     -0.677845
    109 O18         2.5610   -1.3950   -3.1870 o         1 MOL     -0.677845
    110 H47         3.3940   -1.4030   -0.1560 hn        1 MOL      0.298543
    111 H48         5.4670   -3.4380   -0.8640 h1        1 MOL      0.018670
    112 H49         3.3640   -4.1580   -1.6790 hc        1 MOL      0.013924
    113 H50         4.1780   -3.4490   -3.0450 hc        1 MOL      0.013924
    114 N11         6.1990   -0.6720   -0.8530 n         1 MOL     -0.600561
    115 C36         7.0110    0.4790   -1.2820 c3        1 MOL      0.528796
    116 C37         6.5990    1.7150   -0.5130 c         1 MOL      0.312002
    117 O19         6.3100    1.5760    0.7200 o         1 MOL     -0.537471
    118 C38         8.4980    0.1260   -0.9370 c3        1 MOL     -0.287840
    119 C39         9.5820    1.0740   -1.3490 ca        1 MOL      0.108918
    120 C40        10.2640    1.9240   -0.4580 ca        1 MOL     -0.179927
    121 C41         9.7990    1.2490   -2.7520 ca        1 MOL     -0.179927
    122 C42        11.1530    2.8760   -0.9480 ca        1 MOL     -0.075537
    123 C43        10.7290    2.2080   -3.2370 ca        1 MOL     -0.075537
    124 C44        11.4160    2.9950   -2.3380 ca        1 MOL     -0.165041
    125 H51         6.0100   -0.8150    0.1320 hn        1 MOL      0.266629
    126 H52         6.9300    0.6180   -2.3610 h1        1 MOL     -0.031431
    127 H53         8.7650   -0.8240   -1.4010 hc        1 MOL      0.097513
    128 H54         8.5160   -0.0180    0.1420 hc        1 MOL      0.097513
    129 H55        10.1530    1.8070    0.6150 ha        1 MOL      0.127597
    130 H56         9.2720    0.6100   -3.4460 ha        1 MOL      0.127597
    131 H57        11.7830    3.4320   -0.2540 ha        1 MOL      0.099714
    132 H58        10.9500    2.2740   -4.2970 ha        1 MOL      0.099714
    133 H59        12.0990    3.6880   -2.8170 ha        1 MOL      0.114465
    134 N12         6.5790    2.8710   -1.1320 n         1 MOL     -0.170315
    135 C45         6.6230    4.1840   -0.4460 c3        1 MOL      0.264252
    136 C46         5.3710    4.6830    0.2500 c         1 MOL      0.128401
    137 O20         5.3690    5.7690    0.8890 o         1 MOL     -0.481525
    138 C47         7.0600    5.2240   -1.5120 c3        1 MOL     -0.216724
    139 C48         7.5770    4.4660   -2.6690 c3        1 MOL     -0.126466
    140 C49         6.7850    3.1640   -2.5630 c3        1 MOL     -0.152370
    141 H60         7.4470    4.1140    0.2700 h1        1 MOL      0.049044
    142 H61         6.1490    5.7250   -1.8300 hc        1 MOL      0.103127
    143 H62         7.8070    5.8800   -1.0750 hc        1 MOL      0.103127
    144 H63         7.2750    4.9560   -3.5900 hc        1 MOL      0.074374
    145 H64         8.6200    4.2080   -2.5330 hc        1 MOL      0.074374
    146 H65         5.8570    3.3700   -3.0930 h1        1 MOL      0.105545
    147 H66         7.3370    2.3570   -3.0510 h1        1 MOL      0.105545
    148 N13         4.2230    3.9640    0.1090 n         1 MOL     -0.077608
    149 C50         3.0210    4.4090    0.7240 c3        1 MOL     -0.039875
    150 C51         3.0320    4.8050    2.1930 c         1 MOL      0.499294
    151 O21         2.3230    5.7820    2.6290 o         1 MOL     -0.551270
    152 C52         1.9930    3.3140    0.5230 c3        1 MOL     -0.120647
    153 C53         2.2380    1.9880    1.2300 c3        1 MOL      0.019397
    154 C54         1.3250    0.9570    0.6770 c         1 MOL      0.787015
    155 O22         1.7450   -0.0730    0.0940 o         1 MOL     -0.739929
    156 O23         0.0770    1.1000    0.8200 o         1 MOL     -0.739929
    157 H67         4.2510    3.1710   -0.5190 hn        1 MOL      0.208127
    158 H68         2.5950    5.2040    0.1140 h1        1 MOL      0.090175
    159 H69         1.9660    3.0250   -0.5250 hc        1 MOL      0.054080
    160 H70         1.0360    3.7420    0.8290 hc        1 MOL      0.054080
    161 H71         2.0160    2.0300    2.2950 hc        1 MOL     -0.048085
    162 H72         3.2760    1.6890    1.0540 hc        1 MOL     -0.048085
    163 N14         3.9320    4.2520    3.0350 n         1 MOL     -0.201931
    164 C55         4.1660    4.7360    4.4630 c3        1 MOL     -0.083812
    165 H73         5.1710    5.1470    4.5470 h1        1 MOL      0.064144
    166 H74         3.4360    5.5080    4.7100 h1        1 MOL      0.064144
    167 H75         4.0570    3.8990    5.1540 h1        1 MOL      0.064144
    168 H76         4.5870    3.5790    2.6590 hn        1 MOL      0.210419
    169 Ca1        -0.4630   -1.0940   -0.6280 Ca        1 MOL      1.714411
    170 O24         0.3710    0.0250   -2.8070 oh        1 MOL     -0.935282
    171 H77        -0.2160    0.4590   -3.4230 ho        1 MOL      0.431551
    172 H78         1.1500   -0.1820   -3.3250 ho        1 MOL      0.431551
    173 O25        -2.1010   -1.3920    1.4590 oh        1 MOL     -0.935282
    174 H79        -2.0280   -0.4770    1.7490 ho        1 MOL      0.431551
    175 H80        -2.7630   -1.7580    2.0380 ho        1 MOL      0.431551
@<TRIPOS>BOND
     1    1    2 1   
     2    1    4 1   
     3    1    5 1   
     4    1    6 1   
     5    2    3 2   
     6    2    7 1   
     7    7    8 1   
     8    7   15 1   
     9    8    9 1   
    10    8   11 1   
    11    8   16 1   
    12    9   10 2   
    13    9   19 1   
    14   11   12 1   
    15   11   17 1   
    16   11   18 1   
    17   12   13 1   
    18   12   14 1   
    19   19   20 1   
    20   19   24 1   
    21   20   21 1   
    22   20   23 1   
    23   20   25 1   
    24   21   22 2   
    25   21   29 1   
    26   23   26 1   
    27   23   27 1   
    28   23   28 1   
    29   29   30 1   
    30   29   37 1   
    31   30   31 1   
    32   30   33 1   
    33   30   38 1   
    34   31   32 2   
    35   31   41 1   
    36   33   34 1   
    37   33   39 1   
    38   33   40 1   
    39   34   35 1   
    40   34   36 1   
    41   41   42 1   
    42   41   45 1   
    43   42   43 1   
    44   42   46 1   
    45   42   47 1   
    46   43   44 2   
    47   43   48 1   
    48   48   49 1   
    49   48   56 1   
    50   49   50 1   
    51   49   52 1   
    52   49   57 1   
    53   50   51 2   
    54   50   62 1   
    55   52   53 1   
    56   52   58 1   
    57   52   59 1   
    58   53   54 1   
    59   53   55 2   
    60   54   60 1   
    61   54   61 1   
    62   62   63 1   
    63   62   66 1   
    64   63   64 1   
    65   63   67 1   
    66   63   68 1   
    67   64   65 2   
    68   64   69 1   
    69   69   70 1   
    70   69   76 1   
    71   70   71 1   
    72   70   73 1   
    73   70   77 1   
    74   71   72 2   
    75   71   83 1   
    76   73   74 1   
    77   73   75 1   
    78   73   78 1   
    79   74   80 1   
    80   74   81 1   
    81   74   82 1   
    82   75   79 1   
    83   83   84 1   
    84   83   91 1   
    85   84   85 1   
    86   84   87 1   
    87   84   92 1   
    88   85   86 2   
    89   85  102 1   
    90   87   88 1   
    91   87   89 1   
    92   87   93 1   
    93   88   90 1   
    94   88   94 1   
    95   88   95 1   
    96   89   96 1   
    97   89   97 1   
    98   89   98 1   
    99   90   99 1   
   100   90  100 1   
   101   90  101 1   
   102  102  103 1   
   103  102  110 1   
   104  103  104 1   
   105  103  106 1   
   106  103  111 1   
   107  104  105 2   
   108  104  114 1   
   109  106  107 1   
   110  106  112 1   
   111  106  113 1   
   112  107  108 1   
   113  107  109 1   
   114  114  115 1   
   115  114  125 1   
   116  115  116 1   
   117  115  118 1   
   118  115  126 1   
   119  116  117 2   
   120  116  134 1   
   121  118  119 1   
   122  118  127 1   
   123  118  128 1   
   124  119  120 ar  
   125  119  121 ar  
   126  120  122 ar  
   127  120  129 1   
   128  121  123 ar  
   129  121  130 1   
   130  122  124 ar  
   131  122  131 1   
   132  123  124 ar  
   133  123  132 1   
   134  124  133 1   
   135  134  135 1   
   136  134  140 1   
   137  135  136 1   
   138  135  138 1   
   139  135  141 1   
   140  136  137 2   
   141  136  148 1   
   142  138  139 1   
   143  138  142 1   
   144  138  143 1   
   145  139  140 1   
   146  139  144 1   
   147  139  145 1   
   148  140  146 1   
   149  140  147 1   
   150  148  149 1   
   151  148  157 1   
   152  149  150 1   
   153  149  152 1   
   154  149  158 1   
   155  150  151 2   
   156  150  163 1   
   157  152  153 1   
   158  152  159 1   
   159  152  160 1   
   160  153  154 1   
   161  153  161 1   
   162  153  162 1   
   163  154  155 1   
   164  154  156 1   
   165  163  164 1   
   166  163  168 1   
   167  164  165 1   
   168  164  166 1   
   169  164  167 1   
   170  170  171 1   
   171  170  172 1   
   172  173  174 1   
   173  173  175 1   
@<TRIPOS>SUBSTRUCTURE
     1 MOL         1 TEMP              0 ****  ****    0 ROOT
