@<TRIPOS>MOLECULE
MOL
  182   178     1     0     0
SMALL
resp


@<TRIPOS>ATOM
      1 C1         -0.4040    4.3910    5.6190 c3        1 MOL     -0.403786
      2 C2         -0.5910    4.1510    4.1420 c         1 MOL      0.776943
      3 O1          0.2460    4.4920    3.2870 o         1 MOL     -0.605438
      4 H1         -1.3730    4.3550    6.1170 hc        1 MOL      0.112052
      5 H2          0.2460    3.6200    6.0330 hc        1 MOL      0.112052
      6 H3          0.0480    5.3700    5.7740 hc        1 MOL      0.112052
      7 N1         -1.7050    3.5030    3.8440 n         1 MOL     -0.548718
      8 C3         -2.0600    3.0760    2.4880 c3        1 MOL      0.093126
      9 C4         -2.3270    4.2410    1.5010 c         1 MOL      0.447158
     10 O2         -2.4810    5.3810    1.9450 o         1 MOL     -0.530875
     11 C5         -3.1890    2.0640    2.6640 c3        1 MOL     -0.189729
     12 C6         -3.5280    1.2280    1.4700 c         1 MOL      0.783050
     13 O3         -4.0160    0.1080    1.6550 o         1 MOL     -0.801431
     14 O4         -3.3600    1.5270    0.3160 o         1 MOL     -0.801431
     15 H4         -2.3340    3.2410    4.5850 hn        1 MOL      0.305954
     16 H5         -1.1860    2.5600    2.1000 h1        1 MOL     -0.023875
     17 H6         -4.1160    2.5930    2.8830 hc        1 MOL      0.083731
     18 H7         -2.9910    1.3450    3.4590 hc        1 MOL      0.083731
     19 N2         -2.2310    4.0060    0.1920 n         1 MOL     -0.251116
     20 C7         -2.4290    5.0240   -0.9170 c3        1 MOL      0.013639
     21 C8         -3.7200    4.7980   -1.6940 c         1 MOL      0.516468
     22 O5         -4.1870    5.7250   -2.3810 o         1 MOL     -0.565276
     23 C9         -1.1910    5.0830   -1.8890 c3        1 MOL      0.175476
     24 C10        -0.0950    6.0240   -1.3570 c3        1 MOL     -0.213713
     25 C11         0.7490    6.2840   -2.6280 c3        1 MOL      0.074003
     26 C12         1.8590    7.2900   -2.2090 c3        1 MOL      0.058707
     27 N3          2.7200    7.6940   -3.3060 n4        1 MOL     -0.179570
     28 H8         -2.0580    3.0590   -0.0810 hn        1 MOL      0.321705
     29 H9         -2.4860    6.0070   -0.4530 h1        1 MOL      0.067317
     30 H10        -1.5970    5.5080   -2.8010 hc        1 MOL     -0.060346
     31 H11        -0.8280    4.0680   -2.0750 hc        1 MOL     -0.060346
     32 H12         0.4330    5.5460   -0.5240 hc        1 MOL      0.090481
     33 H13        -0.5850    6.9380   -1.0450 hc        1 MOL      0.090481
     34 H14         0.1840    6.8230   -3.3840 hc        1 MOL      0.017534
     35 H15         1.2660    5.4100   -3.0060 hc        1 MOL      0.017534
     36 H16         2.3520    6.8010   -1.3700 hx        1 MOL      0.052514
     37 H17         1.3250    8.1560   -1.8400 hx        1 MOL      0.052514
     38 H18         3.5830    7.1770   -3.2830 hn        1 MOL      0.222330
     39 H19         2.2980    7.5010   -4.2120 hn        1 MOL      0.222330
     40 H20         2.8970    8.6860   -3.2360 hn        1 MOL      0.222330
     41 N4         -4.3540    3.6420   -1.6190 n         1 MOL     -0.278008
     42 C13        -5.6420    3.2160   -2.2290 c3        1 MOL      0.173747
     43 C14        -6.7730    2.6930   -1.2340 c         1 MOL      0.288284
     44 O6         -7.9860    2.7620   -1.5640 o         1 MOL     -0.494460
     45 C15        -5.4080    2.1480   -3.3050 c3        1 MOL     -0.376468
     46 C16        -4.6370    0.9750   -2.6810 c         1 MOL      0.812422
     47 O7         -5.2090    0.2060   -1.8530 o         1 MOL     -0.743959
     48 O8         -3.4260    0.7250   -2.8410 o         1 MOL     -0.743959
     49 H21        -3.8770    2.9060   -1.1110 hn        1 MOL      0.019501
     50 H22        -6.0910    4.0790   -2.7270 h1        1 MOL      0.098427
     51 H23        -4.9660    2.5910   -4.2010 hc        1 MOL      0.109826
     52 H24        -6.3250    1.6290   -3.6080 hc        1 MOL      0.109826
     53 N5         -6.4010    2.2320   -0.0630 n         1 MOL     -0.071968
     54 C17        -7.2260    1.7990    1.0430 c3        1 MOL     -0.303056
     55 C18        -7.5480    0.3360    1.1870 c         1 MOL      0.644132
     56 O9         -8.3910   -0.1200    1.9340 o         1 MOL     -0.579516
     57 H25        -5.4160    2.0360    0.0240 hn        1 MOL      0.108283
     58 H26        -8.1960    2.2920    0.9380 h1        1 MOL      0.143099
     59 H27        -6.7150    2.0800    1.9520 h1        1 MOL      0.143099
     60 N6         -6.7170   -0.4980    0.5410 n         1 MOL     -0.318184
     61 C19        -7.0420   -1.8720    0.3510 c3        1 MOL      0.033525
     62 C20        -5.8580   -2.7900    0.7070 c         1 MOL      0.417109
     63 O10        -4.6900   -2.4540    0.4920 o         1 MOL     -0.342149
     64 C21        -7.4850   -2.2410   -1.0830 c3        1 MOL     -0.299697
     65 C22        -8.5360   -1.3300   -1.6510 c         1 MOL      0.800294
     66 N7         -8.5700   -1.1290   -2.9360 n         1 MOL     -0.900806
     67 O11        -9.4200   -0.8050   -0.9980 o         1 MOL     -0.536117
     68 H28        -6.0070   -0.1220   -0.0680 hn        1 MOL      0.325695
     69 H29        -7.8700   -2.1510    1.0130 h1        1 MOL      0.078365
     70 H30        -7.9220   -3.2360   -1.0200 hc        1 MOL      0.036295
     71 H31        -6.5790   -2.1930   -1.6860 hc        1 MOL      0.036295
     72 H32        -7.7600   -1.4220   -3.4720 hn        1 MOL      0.397004
     73 H33        -9.2210   -0.4550   -3.2970 hn        1 MOL      0.397004
     74 N8         -6.1690   -3.9540    1.2310 n         1 MOL     -0.389372
     75 C23        -5.3200   -5.1290    1.2750 c3        1 MOL     -0.042479
     76 C24        -3.9520   -4.9490    1.8620 c         1 MOL      0.560650
     77 O12        -3.8150   -4.6370    3.0830 o         1 MOL     -0.521681
     78 H34        -7.1500   -4.1350    1.4110 hn        1 MOL      0.321387
     79 H35        -5.1410   -5.4660    0.2600 h1        1 MOL      0.072506
     80 H36        -5.8360   -5.9450    1.7700 h1        1 MOL      0.072506
     81 N9         -2.9470   -5.2960    1.1140 n         1 MOL     -0.487842
     82 C25        -1.5690   -4.9570    1.4820 c3        1 MOL      0.201662
     83 C26        -1.2480   -3.4700    1.3840 c         1 MOL      0.667478
     84 O13        -1.8130   -2.7230    0.5660 o         1 MOL     -0.781117
     85 C27        -0.5270   -5.7970    0.7290 c3        1 MOL     -0.389262
     86 C28        -0.6130   -5.8780   -0.7860 ca        1 MOL      0.163752
     87 C29        -0.5500   -4.7400   -1.5690 ca        1 MOL     -0.182187
     88 C30        -0.9990   -7.1290   -1.3740 ca        1 MOL     -0.182187
     89 C31        -0.7660   -4.8120   -2.9480 ca        1 MOL     -0.222955
     90 C32        -1.1790   -7.2370   -2.7850 ca        1 MOL     -0.222955
     91 C33        -1.0690   -6.0580   -3.5550 ca        1 MOL      0.255307
     92 O14        -1.2350   -6.2240   -4.9110 oh        1 MOL     -0.466094
     93 H37        -3.0360   -5.4310    0.1180 hn        1 MOL      0.261333
     94 H38        -1.3700   -5.1560    2.5320 h1        1 MOL      0.040376
     95 H39        -0.6450   -6.8170    1.1090 hc        1 MOL      0.120451
     96 H40         0.4410   -5.4190    1.0760 hc        1 MOL      0.120451
     97 H41        -0.3810   -3.7640   -1.1210 ha        1 MOL      0.143671
     98 H42        -1.0880   -8.0310   -0.7730 ha        1 MOL      0.143671
     99 H43        -0.7290   -3.9530   -3.5960 ha        1 MOL      0.164479
    100 H44        -1.4120   -8.1760   -3.2430 ha        1 MOL      0.164479
    101 H45        -1.3840   -5.4180   -5.3980 ho        1 MOL      0.364160
    102 N10        -0.2960   -3.0570    2.2340 n         1 MOL     -0.481147
    103 C34         0.1330   -1.7750    2.7130 c3        1 MOL     -0.016764
    104 C35         0.2870   -0.7130    1.5580 c         1 MOL      0.434767
    105 O15        -0.7110   -0.4300    0.8350 o         1 MOL     -0.274607
    106 C36        -0.8300   -1.2640    3.8470 c3        1 MOL      0.213900
    107 C37        -0.4820    0.1440    4.3300 c3        1 MOL     -0.184483
    108 C38        -0.9670   -2.3400    4.9830 c3        1 MOL     -0.314668
    109 C39         0.8710    0.2020    5.1790 c3        1 MOL     -0.178519
    110 H46         0.0950   -3.8310    2.7520 hn        1 MOL      0.296382
    111 H47         1.0930   -1.8600    3.2230 h1        1 MOL      0.055317
    112 H48        -1.7250   -1.0550    3.2600 hc        1 MOL     -0.011879
    113 H49        -1.2190    0.4820    5.0550 hc        1 MOL      0.077658
    114 H50        -0.5570    0.9200    3.5760 hc        1 MOL      0.077658
    115 H51        -1.7390   -3.0870    4.7970 hc        1 MOL      0.093722
    116 H52         0.0030   -2.8320    4.9470 hc        1 MOL      0.093722
    117 H53        -1.0330   -1.7900    5.9300 hc        1 MOL      0.093722
    118 H54         1.6560    0.1140    4.4220 hc        1 MOL      0.050839
    119 H55         0.9450    1.2490    5.4550 hc        1 MOL      0.050839
    120 H56         0.9890   -0.6470    5.8560 hc        1 MOL      0.050839
    121 N11         1.4980   -0.1220    1.4600 n         1 MOL     -0.572906
    122 C40         1.7640    0.9260    0.4350 c3        1 MOL     -0.017090
    123 C41         3.2220    1.0270   -0.0810 c         1 MOL      0.560418
    124 O16         3.4950    1.7810   -0.9910 o         1 MOL     -0.548713
    125 C42         1.3630    2.2700    0.9960 c3        1 MOL      0.431225
    126 O17         1.6660    2.4050    2.3160 oh        1 MOL     -0.633910
    127 H57         2.1550   -0.2670    2.2130 hn        1 MOL      0.364219
    128 H58         1.1800    0.7740   -0.4660 h1        1 MOL      0.097882
    129 H59         0.3020    2.4510    0.8340 h1        1 MOL     -0.084217
    130 H60         1.9050    3.0210    0.4020 h1        1 MOL     -0.084217
    131 H61         1.2050    3.2070    2.5680 ho        1 MOL      0.406249
    132 N12         4.1050    0.1710    0.4450 n         1 MOL     -0.433696
    133 C43         5.4880    0.0710    0.0070 c3        1 MOL      0.038863
    134 C44         5.6620   -0.6340   -1.3790 c         1 MOL      0.658441
    135 O18         4.8720   -1.4930   -1.7460 o         1 MOL     -0.566445
    136 C45         6.2720   -0.5220    1.1490 c3        1 MOL     -0.158147
    137 H62         3.8790   -0.4440    1.2030 hn        1 MOL      0.256349
    138 H63         5.9100    1.0740   -0.0600 h1        1 MOL      0.101551
    139 H64         7.3570   -0.4710    1.0210 hc        1 MOL      0.058477
    140 H65         5.9880   -0.0560    2.0950 hc        1 MOL      0.058477
    141 H66         5.9760   -1.5700    1.2120 hc        1 MOL      0.058477
    142 N13         6.6830   -0.3310   -2.2350 n         1 MOL     -0.629554
    143 C46         7.9630    0.2610   -1.8640 c3        1 MOL      0.227445
    144 C47         9.1490   -0.3660   -2.6260 c         1 MOL      0.365209
    145 O19         8.9520   -0.8870   -3.7640 o         1 MOL     -0.521051
    146 C48         8.0540    1.7310   -2.2140 c3        1 MOL     -0.295404
    147 H67         6.6130   -0.6250   -3.2050 hn        1 MOL      0.358290
    148 H68         8.1190    0.1430   -0.7900 h1        1 MOL      0.003424
    149 H69         7.2830    2.2770   -1.6740 hc        1 MOL      0.087667
    150 H70         9.0020    2.1780   -1.9220 hc        1 MOL      0.087667
    151 H71         7.7820    1.7390   -3.2680 hc        1 MOL      0.087667
    152 N14        10.3460   -0.4620   -2.0570 n         1 MOL     -0.329507
    153 C49        10.7870   -0.1340   -0.6260 c3        1 MOL     -0.132894
    154 C50        10.0890   -1.0520    0.3960 c         1 MOL      0.458172
    155 O20         9.7600   -0.5950    1.4790 o         1 MOL     -0.527481
    156 C51        12.2720   -0.2730   -0.5200 c3        1 MOL      0.123596
    157 C52        12.8890    0.0210    0.8520 c3        1 MOL     -0.315354
    158 C53        14.4270   -0.0970    0.9780 c         1 MOL      0.741052
    159 O21        14.9990   -0.7050    1.9020 o         1 MOL     -0.655422
    160 O22        15.1200    0.3930    0.0350 o         1 MOL     -0.655422
    161 H72        11.0420   -0.8790   -2.6540 hn        1 MOL      0.260152
    162 H73        10.5510    0.9080   -0.4200 h1        1 MOL      0.152583
    163 H74        12.6430    0.4840   -1.1990 hc        1 MOL      0.004461
    164 H75        12.6560   -1.2510   -0.8050 hc        1 MOL      0.004461
    165 H76        12.4760   -0.6470    1.6140 hc        1 MOL      0.069807
    166 H77        12.5630    1.0320    1.0450 hc        1 MOL      0.069807
    167 N15         9.8700   -2.3210    0.0710 n         1 MOL     -0.209007
    168 C54         9.2760   -3.3180    1.0010 c3        1 MOL     -0.201869
    169 H78         8.3190   -2.9480    1.3680 h1        1 MOL      0.101003
    170 H79         9.1210   -4.2600    0.4750 h1        1 MOL      0.101003
    171 H80         9.9500   -3.4770    1.8420 h1        1 MOL      0.101003
    172 H81        10.2030   -2.6800   -0.8140 hn        1 MOL      0.239008
    173 Ca1        -2.9060   -0.8110   -0.7360 Ca        1 MOL      1.759101
    174 O23        -4.1480   -2.4740   -2.3730 oh        1 MOL     -0.805720
    175 H82        -4.0410   -3.4200   -2.2270 ho        1 MOL      0.390888
    176 H83        -4.8630   -2.4180   -3.0060 ho        1 MOL      0.390888
    177 O24        -1.0310   -1.3800   -2.3820 oh        1 MOL     -0.805720
    178 H84        -0.1300   -1.3510   -2.0590 ho        1 MOL      0.390888
    179 H85        -0.9470   -1.4880   -3.3300 ho        1 MOL      0.390888
    180 O25        -1.2210    1.5540   -1.5400 oh        1 MOL     -0.805720
    181 H86        -0.4600    1.6680   -2.1270 ho        1 MOL      0.390888
    182 H87        -1.9800    1.5710   -2.1230 ho        1 MOL      0.390888
@<TRIPOS>BOND
     1    1    2 1   
     2    1    4 1   
     3    1    5 1   
     4    1    6 1   
     5    2    3 2   
     6    2    7 1   
     7    7    8 1   
     8    7   15 1   
     9    8    9 1   
    10    8   11 1   
    11    8   16 1   
    12    9   10 2   
    13    9   19 1   
    14   11   12 1   
    15   11   17 1   
    16   11   18 1   
    17   12   13 1   
    18   12   14 1   
    19   19   20 1   
    20   19   28 1   
    21   20   21 1   
    22   20   23 1   
    23   20   29 1   
    24   21   22 2   
    25   21   41 1   
    26   23   24 1   
    27   23   30 1   
    28   23   31 1   
    29   24   25 1   
    30   24   32 1   
    31   24   33 1   
    32   25   26 1   
    33   25   34 1   
    34   25   35 1   
    35   26   27 1   
    36   26   36 1   
    37   26   37 1   
    38   27   38 1   
    39   27   39 1   
    40   27   40 1   
    41   41   42 1   
    42   41   49 1   
    43   42   43 1   
    44   42   45 1   
    45   42   50 1   
    46   43   44 2   
    47   43   53 1   
    48   45   46 1   
    49   45   51 1   
    50   45   52 1   
    51   46   47 1   
    52   46   48 1   
    53   53   54 1   
    54   53   57 1   
    55   54   55 1   
    56   54   58 1   
    57   54   59 1   
    58   55   56 2   
    59   55   60 1   
    60   60   61 1   
    61   60   68 1   
    62   61   62 1   
    63   61   64 1   
    64   61   69 1   
    65   62   63 2   
    66   62   74 1   
    67   64   65 1   
    68   64   70 1   
    69   64   71 1   
    70   65   66 1   
    71   65   67 2   
    72   66   72 1   
    73   66   73 1   
    74   74   75 1   
    75   74   78 1   
    76   75   76 1   
    77   75   79 1   
    78   75   80 1   
    79   76   77 2   
    80   76   81 1   
    81   81   82 1   
    82   81   93 1   
    83   82   83 1   
    84   82   85 1   
    85   82   94 1   
    86   83   84 2   
    87   83  102 1   
    88   85   86 1   
    89   85   95 1   
    90   85   96 1   
    91   86   87 ar  
    92   86   88 ar  
    93   87   89 ar  
    94   87   97 1   
    95   88   90 ar  
    96   88   98 1   
    97   89   91 ar  
    98   89   99 1   
    99   90   91 ar  
   100   90  100 1   
   101   91   92 1   
   102   92  101 1   
   103  102  103 1   
   104  102  110 1   
   105  103  104 1   
   106  103  106 1   
   107  103  111 1   
   108  104  105 2   
   109  104  121 1   
   110  106  107 1   
   111  106  108 1   
   112  106  112 1   
   113  107  109 1   
   114  107  113 1   
   115  107  114 1   
   116  108  115 1   
   117  108  116 1   
   118  108  117 1   
   119  109  118 1   
   120  109  119 1   
   121  109  120 1   
   122  121  122 1   
   123  121  127 1   
   124  122  123 1   
   125  122  125 1   
   126  122  128 1   
   127  123  124 2   
   128  123  132 1   
   129  125  126 1   
   130  125  129 1   
   131  125  130 1   
   132  126  131 1   
   133  132  133 1   
   134  132  137 1   
   135  133  134 1   
   136  133  136 1   
   137  133  138 1   
   138  134  135 2   
   139  134  142 1   
   140  136  139 1   
   141  136  140 1   
   142  136  141 1   
   143  142  143 1   
   144  142  147 1   
   145  143  144 1   
   146  143  146 1   
   147  143  148 1   
   148  144  145 2   
   149  144  152 1   
   150  146  149 1   
   151  146  150 1   
   152  146  151 1   
   153  152  153 1   
   154  152  161 1   
   155  153  154 1   
   156  153  156 1   
   157  153  162 1   
   158  154  155 2   
   159  154  167 1   
   160  156  157 1   
   161  156  163 1   
   162  156  164 1   
   163  157  158 1   
   164  157  165 1   
   165  157  166 1   
   166  158  159 1   
   167  158  160 1   
   168  167  168 1   
   169  167  172 1   
   170  168  169 1   
   171  168  170 1   
   172  168  171 1   
   173  174  175 1   
   174  174  176 1   
   175  177  178 1   
   176  177  179 1   
   177  180  181 1   
   178  180  182 1   
@<TRIPOS>SUBSTRUCTURE
     1 MOL         1 TEMP              0 ****  ****    0 ROOT
