@<TRIPOS>MOLECULE
MOL
  178   175     1     0     0
SMALL
resp


@<TRIPOS>ATOM
      1 C1          2.0990   -1.0420    5.2140 c3        1 MOL     -0.306262
      2 C2          3.1480   -0.4330    4.2240 c         1 MOL      0.658501
      3 O1          2.8590    0.4960    3.4920 o         1 MOL     -0.539515
      4 H1          1.1010   -0.9510    4.7850 hc        1 MOL      0.072804
      5 H2          2.3270   -2.0940    5.3840 hc        1 MOL      0.072804
      6 H3          2.1360   -0.5030    6.1610 hc        1 MOL      0.072804
      7 N1          4.4380   -0.8800    4.2940 n         1 MOL     -0.560346
      8 C3          5.6300   -0.3410    3.5450 c3        1 MOL      0.241584
      9 C4          6.0040   -1.1440    2.3270 c         1 MOL      0.333709
     10 O2          6.8940   -0.7360    1.5360 o         1 MOL     -0.460550
     11 C5          6.7190   -0.2030    4.5840 c3        1 MOL     -0.032607
     12 C6          8.0650    0.2780    4.0500 c         1 MOL      0.733440
     13 O3          8.1560    1.4190    3.5980 o         1 MOL     -0.739195
     14 O4          9.0460   -0.4550    4.3060 o         1 MOL     -0.739195
     15 H4          4.6340   -1.6160    4.9490 hn        1 MOL      0.272312
     16 H5          5.4630    0.7070    3.2940 h1        1 MOL      0.050374
     17 H6          6.9180   -1.1900    5.0240 hc        1 MOL     -0.051060
     18 H7          6.3560    0.4180    5.4060 hc        1 MOL     -0.051060
     19 N2          5.3640   -2.3240    2.2030 n         1 MOL     -0.396676
     20 C7          5.4050   -3.3390    1.1310 c3        1 MOL      0.380241
     21 C8          5.0610   -2.7510   -0.3170 c         1 MOL      0.255605
     22 O5          4.0660   -3.2320   -0.9380 o         1 MOL     -0.560098
     23 C9          6.7150   -4.1050    1.1620 c3        1 MOL     -0.439826
     24 H8          4.8080   -2.5870    3.0050 hn        1 MOL      0.245184
     25 H9          4.5520   -3.9880    1.2910 h1        1 MOL      0.015081
     26 H10         6.6760   -4.6970    0.2490 hc        1 MOL      0.124680
     27 H11         7.6140   -3.5100    1.2720 hc        1 MOL      0.124680
     28 H12         6.6620   -4.8030    1.9920 hc        1 MOL      0.124680
     29 N3          5.8580   -1.8760   -0.7990 n         1 MOL     -0.237532
     30 C10         5.9390   -1.3610   -2.1750 c3        1 MOL      0.107649
     31 C11         5.9760    0.2060   -2.2560 c         1 MOL      0.551894
     32 O6          6.0480    0.7270   -3.3710 o         1 MOL     -0.539193
     33 C12         7.1090   -1.9740   -3.0160 c3        1 MOL     -0.282344
     34 C13         6.9810   -3.5470   -3.0280 c         1 MOL      0.943714
     35 O7          6.0890   -4.0860   -3.7450 o         1 MOL     -0.780531
     36 O8          7.8330   -4.1870   -2.4470 o         1 MOL     -0.780531
     37 H13         6.5510   -1.6050   -0.1110 hn        1 MOL      0.212806
     38 H14         4.9650   -1.5660   -2.6220 h1        1 MOL     -0.017746
     39 H15         8.0560   -1.7020   -2.5540 hc        1 MOL      0.038281
     40 H16         7.0180   -1.6160   -4.0420 hc        1 MOL      0.038281
     41 N4          5.9590    0.8780   -1.0640 n         1 MOL     -0.322536
     42 C14         5.8430    2.3610   -0.9070 c3        1 MOL     -0.104261
     43 C15         4.6190    2.9450   -1.6630 c         1 MOL      0.523757
     44 O9          4.7210    4.1040   -2.1530 o         1 MOL     -0.559005
     45 H17         6.2970    0.4000   -0.2390 hn        1 MOL      0.236949
     46 H18         6.7980    2.7720   -1.2330 h1        1 MOL      0.098537
     47 H19         5.6710    2.4780    0.1640 h1        1 MOL      0.098537
     48 N5          3.4130    2.2740   -1.7730 n         1 MOL     -0.164762
     49 C16         2.1660    2.7960   -2.3350 c3        1 MOL     -0.260999
     50 C17         1.6310    4.0950   -1.6940 c         1 MOL      0.641268
     51 O10         1.5530    4.1910   -0.4630 o         1 MOL     -0.518527
     52 C18         1.1570    1.6310   -2.3150 c3        1 MOL     -0.316843
     53 C19         1.6130    0.4660   -3.0780 c         1 MOL      0.608445
     54 N6          1.3740    0.3840   -4.3110 n         1 MOL     -0.604984
     55 O11         2.2150   -0.4650   -2.4690 o         1 MOL     -0.557471
     56 H20         3.3640    1.3120   -1.4570 hn        1 MOL      0.155729
     57 H21         2.3800    3.0200   -3.3750 h1        1 MOL      0.077921
     58 H22         0.1820    1.9540   -2.6840 hc        1 MOL      0.168810
     59 H23         1.0720    1.2880   -1.2830 hc        1 MOL      0.168810
     60 H24         0.9180    1.1810   -4.7200 hn        1 MOL      0.316960
     61 H25         1.7760   -0.3200   -4.9080 hn        1 MOL      0.316960
     62 N7          1.3610    5.0970   -2.5380 n         1 MOL     -0.304932
     63 C20         0.9570    6.4240   -2.2130 c3        1 MOL     -0.283417
     64 C21        -0.4840    6.6990   -1.9660 c         1 MOL      0.554669
     65 O12        -1.3300    6.1380   -2.7520 o         1 MOL     -0.532563
     66 H26         1.4980    4.8670   -3.5070 hn        1 MOL      0.269322
     67 H27         1.1610    7.0700   -3.0580 h1        1 MOL      0.132500
     68 H28         1.5920    6.7010   -1.3680 h1        1 MOL      0.132500
     69 N8         -0.7830    7.5810   -1.0610 n         1 MOL     -0.285693
     70 C22        -2.2190    7.8930   -0.6650 c3        1 MOL     -0.434163
     71 C23        -2.9460    6.7890    0.1030 c         1 MOL      0.533576
     72 O13        -4.1010    6.9610    0.5550 o         1 MOL     -0.556837
     73 C24        -2.3430    9.2270    0.1160 c3        1 MOL      0.533168
     74 C25        -1.6680    9.1590    1.5170 c3        1 MOL     -0.337919
     75 O14        -1.6110   10.1750   -0.6660 oh        1 MOL     -0.644078
     76 H29        -0.0600    8.0830   -0.5690 hn        1 MOL      0.239942
     77 H30        -2.7250    7.9980   -1.6320 h1        1 MOL      0.197530
     78 H31        -3.3570    9.5850    0.2920 h1        1 MOL      0.047047
     79 H32        -0.6680    9.9810   -0.5860 ho        1 MOL      0.377724
     80 H33        -2.1850    8.5130    2.2250 hc        1 MOL      0.075256
     81 H34        -0.6560    8.7680    1.4620 hc        1 MOL      0.075256
     82 H35        -1.7440   10.1920    1.8630 hc        1 MOL      0.075256
     83 N9         -2.2450    5.6260    0.3160 n         1 MOL     -0.127319
     84 C26        -2.7140    4.3490    0.8600 c3        1 MOL     -0.121469
     85 C27        -2.2850    3.1700    0.0950 c         1 MOL      0.488553
     86 O15        -1.4300    3.2630   -0.7440 o         1 MOL     -0.470641
     87 C28        -2.3610    4.2370    2.3630 c3        1 MOL      0.078809
     88 C29        -0.8200    4.0930    2.7050 c3        1 MOL     -0.211590
     89 C30        -3.1700    5.2890    3.2600 c3        1 MOL     -0.244128
     90 C31        -0.5320    3.3550    4.0070 c3        1 MOL     -0.236296
     91 H36        -1.2830    5.6210    0.0230 hn        1 MOL      0.123214
     92 H37        -3.8090    4.3180    0.9390 h1        1 MOL      0.088579
     93 H38        -2.7350    3.2730    2.7330 hc        1 MOL      0.021035
     94 H39        -0.3830    5.0720    2.8910 hc        1 MOL      0.135244
     95 H40        -0.2450    3.5450    1.9660 hc        1 MOL      0.135244
     96 H41        -3.1290    5.0200    4.3120 hc        1 MOL      0.069391
     97 H42        -2.6910    6.2590    3.1260 hc        1 MOL      0.069391
     98 H43        -4.2320    5.3660    3.0400 hc        1 MOL      0.069391
     99 H44        -0.9520    2.3460    4.0610 hc        1 MOL      0.072746
    100 H45         0.5580    3.2450    4.0070 hc        1 MOL      0.072746
    101 H46        -0.8150    3.8570    4.9270 hc        1 MOL      0.072746
    102 N10        -2.6700    1.9350    0.4020 n         1 MOL     -0.471422
    103 C32        -2.1590    0.6490   -0.2150 c3        1 MOL      0.087779
    104 C33        -3.2940   -0.4550   -0.4480 c         1 MOL      0.453819
    105 O16        -3.1250   -1.6890   -0.3720 o         1 MOL     -0.465436
    106 C34        -0.9580    0.1180    0.5470 c3        1 MOL     -0.114749
    107 C35        -0.0580   -0.8000   -0.2180 c         1 MOL      0.656795
    108 O17         0.9730   -1.2880    0.3360 o         1 MOL     -0.741014
    109 O18        -0.3500   -1.2000   -1.3280 o         1 MOL     -0.741014
    110 H47        -3.4400    1.8700    1.0390 hn        1 MOL      0.254710
    111 H48        -1.7540    0.9020   -1.2000 h1        1 MOL      0.061263
    112 H49        -1.2680   -0.4690    1.4050 hc        1 MOL      0.082181
    113 H50        -0.3880    0.9360    0.9840 hc        1 MOL      0.082181
    114 N11        -4.5890   -0.0370   -0.6780 n         1 MOL     -0.452784
    115 C36        -5.8180   -0.8700   -0.8980 c3        1 MOL      0.165257
    116 C37        -5.9180   -1.9370    0.1990 c         1 MOL      0.376778
    117 O19        -5.9840   -1.6400    1.3890 o         1 MOL     -0.493886
    118 C38        -7.0940    0.0240   -0.8140 c3        1 MOL     -0.287499
    119 C39        -8.3610   -0.7690   -1.2210 ca        1 MOL      0.076891
    120 C40        -8.4900   -1.2770   -2.5460 ca        1 MOL     -0.132590
    121 C41        -9.3260   -1.1940   -0.2540 ca        1 MOL     -0.132590
    122 C42        -9.5950   -2.0520   -2.9310 ca        1 MOL     -0.146211
    123 C43       -10.4160   -2.0690   -0.5920 ca        1 MOL     -0.146211
    124 C44       -10.5600   -2.5150   -1.9460 ca        1 MOL     -0.105312
    125 H51        -4.6430    0.9600   -0.7780 hn        1 MOL      0.246922
    126 H52        -5.8110   -1.2560   -1.9230 h1        1 MOL      0.052549
    127 H53        -6.9250    0.8550   -1.4880 hc        1 MOL      0.115911
    128 H54        -7.1640    0.4180    0.2020 hc        1 MOL      0.115911
    129 H55        -7.7280   -1.1290   -3.2900 ha        1 MOL      0.126644
    130 H56        -9.1450   -0.9190    0.7800 ha        1 MOL      0.126644
    131 H57        -9.7170   -2.4850   -3.9170 ha        1 MOL      0.122273
    132 H58       -11.0200   -2.4910    0.2090 ha        1 MOL      0.122273
    133 H59       -11.3350   -3.2340   -2.2080 ha        1 MOL      0.110465
    134 N12        -5.9050   -3.2440   -0.1960 n         1 MOL     -0.056538
    135 C45        -6.2050   -4.3260    0.7620 c3        1 MOL      0.095726
    136 C46        -5.1690   -4.3680    1.8780 c         1 MOL      0.184751
    137 O20        -5.5030   -4.6390    3.0060 o         1 MOL     -0.507866
    138 C47        -6.2080   -5.6070   -0.0520 c3        1 MOL      0.163747
    139 C48        -6.7850   -5.0350   -1.3080 c3        1 MOL     -0.120684
    140 C49        -5.9880   -3.7940   -1.5450 c3        1 MOL     -0.034950
    141 H60        -7.2000   -4.1330    1.1620 h1        1 MOL      0.045689
    142 H61        -5.2120   -6.0410   -0.0420 hc        1 MOL     -0.025358
    143 H62        -6.8820   -6.3000    0.4510 hc        1 MOL     -0.025358
    144 H63        -6.8350   -5.8790   -1.9950 hc        1 MOL      0.029358
    145 H64        -7.8280   -4.7830   -1.0750 hc        1 MOL      0.029358
    146 H65        -5.0040   -4.0800   -1.9360 h1        1 MOL      0.038097
    147 H66        -6.5010   -3.1420   -2.2470 h1        1 MOL      0.038097
    148 N13        -3.9110   -4.0460    1.6230 n         1 MOL      0.094279
    149 C50        -2.8710   -3.9800    2.6560 c3        1 MOL     -0.211782
    150 C51        -3.0970   -2.8490    3.6540 c         1 MOL      0.431123
    151 O21        -2.6100   -2.9290    4.7770 o         1 MOL     -0.551909
    152 C52        -1.4740   -3.8880    1.9750 c3        1 MOL      0.077644
    153 C53        -1.1900   -5.0480    0.9370 c3        1 MOL     -0.253695
    154 C54        -0.1970   -4.6130   -0.0800 c         1 MOL      0.756226
    155 O22        -0.5680   -4.3600   -1.2730 o         1 MOL     -0.754566
    156 O23         1.0230   -4.4340    0.1490 o         1 MOL     -0.754566
    157 H67        -3.6080   -3.7760    0.7010 hn        1 MOL      0.138891
    158 H68        -2.8230   -4.9720    3.1010 h1        1 MOL      0.116168
    159 H69        -0.6850   -3.9700    2.7160 hc        1 MOL      0.043716
    160 H70        -1.3970   -2.9520    1.4280 hc        1 MOL      0.043716
    161 H71        -2.1410   -5.4860    0.6210 hc        1 MOL      0.034880
    162 H72        -0.7060   -5.7820    1.5780 hc        1 MOL      0.034880
    163 N14        -3.8070   -1.7830    3.2640 n         1 MOL     -0.056263
    164 C55        -4.2100   -0.6830    4.1730 c3        1 MOL     -0.349544
    165 H73        -5.2390   -0.8380    4.4950 h1        1 MOL      0.126357
    166 H74        -3.5540   -0.6730    5.0440 h1        1 MOL      0.126357
    167 H75        -4.1330    0.2690    3.6480 h1        1 MOL      0.126357
    168 H76        -4.1310   -1.8310    2.3040 hn        1 MOL      0.148328
    169 Ca1         1.5070   -2.9050   -1.8000 Ca        1 MOL      1.712016
    170 O24         2.0850   -5.4290   -2.5680 oh        1 MOL     -0.751426
    171 H77         1.9990   -5.5710   -3.5120 ho        1 MOL      0.367524
    172 H78         3.0310   -5.3080   -2.4410 ho        1 MOL      0.367524
    173 O25         0.0880   -2.9570   -4.2080 oh        1 MOL     -0.751426
    174 H79        -0.6160   -2.3320   -4.3710 ho        1 MOL      0.367524
    175 H80        -0.1120   -3.6950   -4.7960 ho        1 MOL      0.367524
    176 O26         3.3080   -3.1060   -3.7810 oh        1 MOL     -0.751426
    177 H81         3.2960   -3.0680   -4.7340 ho        1 MOL      0.367524
    178 H82         4.1450   -3.5340   -3.5690 ho        1 MOL      0.367524
@<TRIPOS>BOND
     1    1    2 1   
     2    1    4 1   
     3    1    5 1   
     4    1    6 1   
     5    2    3 2   
     6    2    7 1   
     7    7    8 1   
     8    7   15 1   
     9    8    9 1   
    10    8   11 1   
    11    8   16 1   
    12    9   10 2   
    13    9   19 1   
    14   11   12 1   
    15   11   17 1   
    16   11   18 1   
    17   12   13 1   
    18   12   14 1   
    19   19   20 1   
    20   19   24 1   
    21   20   21 1   
    22   20   23 1   
    23   20   25 1   
    24   21   22 2   
    25   21   29 1   
    26   23   26 1   
    27   23   27 1   
    28   23   28 1   
    29   29   30 1   
    30   29   37 1   
    31   30   31 1   
    32   30   33 1   
    33   30   38 1   
    34   31   32 2   
    35   31   41 1   
    36   33   34 1   
    37   33   39 1   
    38   33   40 1   
    39   34   35 1   
    40   34   36 1   
    41   41   42 1   
    42   41   45 1   
    43   42   43 1   
    44   42   46 1   
    45   42   47 1   
    46   43   44 2   
    47   43   48 1   
    48   48   49 1   
    49   48   56 1   
    50   49   50 1   
    51   49   52 1   
    52   49   57 1   
    53   50   51 2   
    54   50   62 1   
    55   52   53 1   
    56   52   58 1   
    57   52   59 1   
    58   53   54 1   
    59   53   55 2   
    60   54   60 1   
    61   54   61 1   
    62   62   63 1   
    63   62   66 1   
    64   63   64 1   
    65   63   67 1   
    66   63   68 1   
    67   64   65 2   
    68   64   69 1   
    69   69   70 1   
    70   69   76 1   
    71   70   71 1   
    72   70   73 1   
    73   70   77 1   
    74   71   72 2   
    75   71   83 1   
    76   73   74 1   
    77   73   75 1   
    78   73   78 1   
    79   74   80 1   
    80   74   81 1   
    81   74   82 1   
    82   75   79 1   
    83   83   84 1   
    84   83   91 1   
    85   84   85 1   
    86   84   87 1   
    87   84   92 1   
    88   85   86 2   
    89   85  102 1   
    90   87   88 1   
    91   87   89 1   
    92   87   93 1   
    93   88   90 1   
    94   88   94 1   
    95   88   95 1   
    96   89   96 1   
    97   89   97 1   
    98   89   98 1   
    99   90   99 1   
   100   90  100 1   
   101   90  101 1   
   102  102  103 1   
   103  102  110 1   
   104  103  104 1   
   105  103  106 1   
   106  103  111 1   
   107  104  105 2   
   108  104  114 1   
   109  106  107 1   
   110  106  112 1   
   111  106  113 1   
   112  107  108 1   
   113  107  109 1   
   114  114  115 1   
   115  114  125 1   
   116  115  116 1   
   117  115  118 1   
   118  115  126 1   
   119  116  117 2   
   120  116  134 1   
   121  118  119 1   
   122  118  127 1   
   123  118  128 1   
   124  119  120 ar  
   125  119  121 ar  
   126  120  122 ar  
   127  120  129 1   
   128  121  123 ar  
   129  121  130 1   
   130  122  124 ar  
   131  122  131 1   
   132  123  124 ar  
   133  123  132 1   
   134  124  133 1   
   135  134  135 1   
   136  134  140 1   
   137  135  136 1   
   138  135  138 1   
   139  135  141 1   
   140  136  137 2   
   141  136  148 1   
   142  138  139 1   
   143  138  142 1   
   144  138  143 1   
   145  139  140 1   
   146  139  144 1   
   147  139  145 1   
   148  140  146 1   
   149  140  147 1   
   150  148  149 1   
   151  148  157 1   
   152  149  150 1   
   153  149  152 1   
   154  149  158 1   
   155  150  151 2   
   156  150  163 1   
   157  152  153 1   
   158  152  159 1   
   159  152  160 1   
   160  153  154 1   
   161  153  161 1   
   162  153  162 1   
   163  154  155 1   
   164  154  156 1   
   165  163  164 1   
   166  163  168 1   
   167  164  165 1   
   168  164  166 1   
   169  164  167 1   
   170  170  171 1   
   171  170  172 1   
   172  173  174 1   
   173  173  175 1   
   174  176  177 1   
   175  176  178 1   
@<TRIPOS>SUBSTRUCTURE
     1 MOL         1 TEMP              0 ****  ****    0 ROOT
