@<TRIPOS>MOLECULE
MOL
  192   187     1     0     0
SMALL
resp


@<TRIPOS>ATOM
      1 C1         -5.5440   -4.2690    3.0300 c3        1 MOL     -0.320198
      2 C2         -4.2990   -3.8560    2.1960 c         1 MOL      0.830233
      3 O1         -3.5780   -2.9470    2.5740 o         1 MOL     -0.511078
      4 H1         -5.3510   -4.0820    4.0870 hc        1 MOL      0.047218
      5 H2         -6.4070   -3.6850    2.7100 hc        1 MOL      0.047218
      6 H3         -5.7470   -5.3300    2.8800 hc        1 MOL      0.047218
      7 N1         -4.2170   -4.3000    0.9190 n         1 MOL     -0.803851
      8 C3         -3.2480   -3.9550   -0.1060 c3        1 MOL      0.201531
      9 C4         -1.7890   -4.0640    0.3820 c         1 MOL      0.725367
     10 O2         -0.9100   -3.4820   -0.2020 o         1 MOL     -0.575619
     11 C5         -3.5790   -2.6160   -0.7490 c3        1 MOL     -0.620584
     12 C6         -5.0720   -2.4190   -0.9320 c         1 MOL      0.758100
     13 O3         -5.7510   -3.3490   -1.4920 o         1 MOL     -0.645298
     14 O4         -5.6470   -1.3830   -0.5180 o         1 MOL     -0.645298
     15 H4         -4.9610   -4.9370    0.6670 hn        1 MOL      0.299130
     16 H5         -3.2110   -4.6760   -0.9310 h1        1 MOL      0.077350
     17 H6         -3.0920   -2.5420   -1.7250 hc        1 MOL      0.187928
     18 H7         -3.2410   -1.8260   -0.0840 hc        1 MOL      0.187928
     19 N2         -1.5050   -4.9780    1.2820 n         1 MOL     -0.566008
     20 C7         -0.1640   -5.2060    1.8570 c3        1 MOL     -0.003608
     21 C8          0.5710   -6.3160    0.9420 c         1 MOL      0.570080
     22 O5          0.1600   -7.4480    0.8560 o         1 MOL     -0.615178
     23 C9         -0.3360   -5.5820    3.3950 c3        1 MOL      0.253620
     24 C10        -1.0390   -4.4790    4.2220 c3        1 MOL     -0.184934
     25 C11         1.0780   -5.8490    3.8720 c3        1 MOL     -0.148687
     26 C12        -1.5480   -4.9210    5.5850 c3        1 MOL     -0.235893
     27 H8         -2.2400   -5.6430    1.5050 hn        1 MOL      0.293620
     28 H9          0.3970   -4.2750    1.7730 h1        1 MOL      0.062173
     29 H10        -0.9020   -6.5180    3.3590 hc        1 MOL     -0.044904
     30 H11        -1.9340   -4.1010    3.7150 hc        1 MOL      0.102450
     31 H12        -0.2670   -3.7660    4.4900 hc        1 MOL      0.102450
     32 H13         0.9840   -6.3430    4.8410 hc        1 MOL      0.021371
     33 H14         1.6500   -6.5330    3.2660 hc        1 MOL      0.021371
     34 H15         1.5630   -4.8800    3.9030 hc        1 MOL      0.021371
     35 H16        -2.3320   -5.6650    5.4490 hc        1 MOL      0.056275
     36 H17        -0.7500   -5.2540    6.2440 hc        1 MOL      0.056275
     37 H18        -2.0700   -4.1040    6.0900 hc        1 MOL      0.056275
     38 N3          1.6000   -6.0400    0.1880 n         1 MOL     -0.341405
     39 C13         2.2760   -4.7800   -0.1750 c3        1 MOL      0.018251
     40 C14         2.8490   -4.9310   -1.6220 c         1 MOL      0.563871
     41 O6          3.0780   -6.0690   -2.0720 o         1 MOL     -0.571195
     42 C15         3.4960   -4.6140    0.7280 c3        1 MOL     -0.322627
     43 C16         4.1150   -3.2680    0.4040 c         1 MOL      0.730230
     44 O7          5.3090   -3.2360    0.1150 o         1 MOL     -0.684278
     45 O8          3.3520   -2.2800    0.0790 o         1 MOL     -0.684278
     46 H19         2.0560   -6.8750   -0.1670 hn        1 MOL      0.253355
     47 H20         1.6090   -3.9190   -0.0800 h1        1 MOL     -0.016513
     48 H21         4.1790   -5.4490    0.5850 hc        1 MOL      0.083127
     49 H22         3.1580   -4.5760    1.7670 hc        1 MOL      0.083127
     50 N4          2.9670   -3.8390   -2.3270 n         1 MOL     -0.292926
     51 C17         3.4090   -3.8000   -3.7000 c3        1 MOL     -0.202078
     52 C18         4.5020   -2.8410   -4.0290 c         1 MOL      0.730179
     53 O9          4.7990   -2.6500   -5.2030 o         1 MOL     -0.620524
     54 H23         2.9490   -3.0070   -1.7480 hn        1 MOL      0.297462
     55 H24         2.5810   -3.4170   -4.3110 h1        1 MOL      0.098428
     56 H25         3.6080   -4.8310   -3.9810 h1        1 MOL      0.098428
     57 N5          5.2270   -2.2340   -3.0770 n         1 MOL     -0.637069
     58 C19         6.3680   -1.3570   -3.4640 c3        1 MOL      0.169991
     59 C20         7.5020   -1.1630   -2.4490 c         1 MOL      0.329336
     60 O10         8.6570   -0.9890   -2.7990 o         1 MOL     -0.563094
     61 C21         5.8930    0.0650   -3.7440 c3        1 MOL     -0.151812
     62 C22         4.8080    0.5730   -2.8240 c         1 MOL      0.652502
     63 O11         5.2140    0.8260   -1.6650 o         1 MOL     -0.669621
     64 O12         3.5810    0.6720   -3.2300 o         1 MOL     -0.669621
     65 H26         4.9000   -2.2690   -2.1220 hn        1 MOL      0.375256
     66 H27         6.9360   -1.7010   -4.3280 h1        1 MOL      0.075586
     67 H28         5.5680    0.1110   -4.7820 hc        1 MOL      0.013612
     68 H29         6.7390    0.7500   -3.7440 hc        1 MOL      0.013612
     69 N6          7.1650   -1.3190   -1.1580 n         1 MOL     -0.104956
     70 C23         8.0990   -1.2020    0.0220 c3        1 MOL     -0.184618
     71 C24         8.3430    0.2830    0.3000 c         1 MOL      0.532096
     72 O13         9.2230    0.4760    1.1200 o         1 MOL     -0.610383
     73 H30         6.2390   -1.5970   -0.8780 hn        1 MOL      0.197729
     74 H31         9.0590   -1.7100   -0.0260 h1        1 MOL      0.094335
     75 H32         7.5520   -1.6200    0.8680 h1        1 MOL      0.094335
     76 N7          7.6390    1.2140   -0.3520 n         1 MOL     -0.014067
     77 C25         7.6620    2.6310   -0.1100 c3        1 MOL      0.040520
     78 C26         7.1000    3.0960    1.2540 c         1 MOL      0.417121
     79 O14         7.3490    4.2340    1.5760 o         1 MOL     -0.523346
     80 C27         8.9970    3.2430   -0.5590 c3        1 MOL     -0.241877
     81 C28         9.2480    2.7830   -2.0110 c3        1 MOL      0.019699
     82 C29        10.4190    3.5120   -2.6760 c         1 MOL      0.603576
     83 N8         10.5290    3.2490   -3.9380 n         1 MOL     -0.783485
     84 O15        11.1720    4.3240   -2.1650 o         1 MOL     -0.586770
     85 H33         6.9260    0.8820   -0.9920 hn        1 MOL      0.030749
     86 H34         6.9570    3.0910   -0.8010 h1        1 MOL      0.102216
     87 H35         9.8710    2.8270   -0.0530 hc        1 MOL      0.076863
     88 H36         8.8490    4.3230   -0.4660 hc        1 MOL      0.076863
     89 H37         8.3310    2.8240   -2.6100 hc        1 MOL      0.026194
     90 H38         9.4670    1.7230   -2.0040 hc        1 MOL      0.026194
     91 H39         9.9170    2.5620   -4.3700 hn        1 MOL      0.348053
     92 H40        11.1930    3.8680   -4.3860 hn        1 MOL      0.348053
     93 N9          6.4760    2.2790    2.0690 n         1 MOL     -0.321312
     94 C30         5.8420    2.6450    3.4290 c3        1 MOL     -0.024821
     95 C31         4.3720    2.2680    3.5030 c         1 MOL      0.559902
     96 O16         3.8120    2.2400    4.5830 o         1 MOL     -0.584495
     97 C32         6.5720    1.9270    4.6720 c3        1 MOL      0.321482
     98 C33         6.3640    0.4810    4.5340 c3        1 MOL     -0.200283
     99 C34         8.0760    2.3080    4.8140 c3        1 MOL     -0.200283
    100 H41         6.2180    1.4030    1.6320 hn        1 MOL      0.226760
    101 H42         5.9530    3.7220    3.5160 h1        1 MOL      0.084286
    102 H43         6.0810    2.3420    5.5570 hc        1 MOL     -0.062274
    103 H44         6.8690   -0.0110    5.3680 hc        1 MOL      0.032378
    104 H45         5.3400    0.1030    4.5620 hc        1 MOL      0.032378
    105 H46         6.8780    0.1040    3.6500 hc        1 MOL      0.032378
    106 H47         8.5670    2.0150    5.7360 hc        1 MOL      0.032378
    107 H48         8.6540    1.9310    3.9740 hc        1 MOL      0.032378
    108 H49         8.0340    3.3950    4.7350 hc        1 MOL      0.032378
    109 N10         3.6710    1.8300    2.4690 n         1 MOL     -0.573776
    110 C35         2.2580    1.4410    2.5080 c3        1 MOL      0.386962
    111 C36         1.5770    1.9290    1.2600 c         1 MOL      0.528129
    112 O17         2.1580    2.4440    0.2790 o         1 MOL     -0.541677
    113 C37         2.2670   -0.0500    2.6550 c3        1 MOL     -0.071038
    114 C38         0.9450   -0.7140    2.2510 c         1 MOL      0.287837
    115 N11         0.9170   -1.5660    1.2570 n         1 MOL     -0.512790
    116 O18        -0.1690   -0.4150    2.7340 o         1 MOL     -0.554757
    117 H50         4.1330    1.4820    1.6460 hn        1 MOL      0.262102
    118 H51         1.7120    1.8960    3.3470 h1        1 MOL      0.017355
    119 H52         2.3250   -0.2000    3.7340 hc        1 MOL      0.056068
    120 H53         3.1660   -0.5440    2.2920 hc        1 MOL      0.056068
    121 H54         1.8240   -1.9060    0.9750 hn        1 MOL      0.333790
    122 H55         0.0660   -2.0930    1.1280 hn        1 MOL      0.333790
    123 N12         0.2420    1.9070    1.2270 n         1 MOL     -0.699551
    124 C39        -0.6360    2.2500    0.1000 c3        1 MOL      0.373589
    125 C40        -2.0520    2.7680    0.5470 c         1 MOL      0.682320
    126 O19        -2.7070    2.2000    1.3440 o         1 MOL     -0.587112
    127 C41        -0.8150    1.0580   -0.8380 c3        1 MOL     -0.124755
    128 C42        -1.6800    1.3910   -1.9680 ca        1 MOL     -0.037997
    129 C43        -1.1540    2.2990   -2.8910 ca        1 MOL     -0.078219
    130 C44        -2.9840    1.1020   -2.0250 ca        1 MOL     -0.078219
    131 C45        -1.9760    2.8910   -3.8340 ca        1 MOL     -0.306582
    132 C46        -3.8720    1.5580   -3.0360 ca        1 MOL     -0.306582
    133 C47        -3.3060    2.5130   -3.8590 ca        1 MOL      0.406648
    134 O20        -4.1020    3.1420   -4.8180 oh        1 MOL     -0.596480
    135 H56        -0.1510    1.4040    1.9980 hn        1 MOL      0.300100
    136 H57        -0.1310    3.0670   -0.4110 h1        1 MOL      0.034823
    137 H58        -1.1300    0.1790   -0.2740 hc        1 MOL      0.083747
    138 H59         0.1520    0.6920   -1.1850 hc        1 MOL      0.083747
    139 H60        -0.1130    2.5530   -2.8140 ha        1 MOL      0.123885
    140 H61        -3.4050    0.5920   -1.1660 ha        1 MOL      0.123885
    141 H62        -1.6350    3.7330   -4.4170 ha        1 MOL      0.140299
    142 H63        -4.9120    1.3170   -3.2080 ha        1 MOL      0.140299
    143 H64        -3.7490    3.8870   -5.3140 ho        1 MOL      0.394896
    144 N13        -2.5270    3.8980    0.0220 n         1 MOL     -0.935545
    145 C48        -3.8160    4.5300    0.3730 c3        1 MOL      0.805695
    146 C49        -4.7290    4.7250   -0.8400 c         1 MOL      0.555723
    147 O21        -4.3860    5.4830   -1.7460 o         1 MOL     -0.569994
    148 C50        -3.4860    5.9240    0.9160 c3        1 MOL     -0.039124
    149 C51        -4.6870    6.7370    1.3430 c3        1 MOL     -0.246486
    150 C52        -4.1890    8.1150    1.7100 c         1 MOL      0.718522
    151 O22        -4.4410    9.1120    0.9450 o         1 MOL     -0.668369
    152 O23        -3.8030    8.2940    2.8500 o         1 MOL     -0.668369
    153 H65        -1.9720    4.3140   -0.7270 hn        1 MOL      0.310398
    154 H66        -4.2720    4.0230    1.2300 h1        1 MOL     -0.042715
    155 H67        -2.9310    6.4900    0.1740 hc        1 MOL     -0.017559
    156 H68        -2.9720    5.7820    1.8750 hc        1 MOL     -0.017559
    157 H69        -5.1000    6.1460    2.1580 hc        1 MOL      0.043051
    158 H70        -5.4330    6.7460    0.5390 hc        1 MOL      0.043051
    159 N14        -5.8680    3.9680   -0.9160 n         1 MOL     -0.448123
    160 C53        -6.2200    2.8800    0.0150 c3        1 MOL     -0.272665
    161 C54        -6.8750    3.2470    1.4060 c         1 MOL      0.717982
    162 O24        -7.2830    4.3860    1.6260 o         1 MOL     -0.543531
    163 C55        -7.1320    1.8900   -0.6830 c3        1 MOL      0.266686
    164 C56        -8.6210    2.2880   -0.8920 c3        1 MOL     -0.395400
    165 C57        -9.1940    1.1680   -1.7450 c         1 MOL      0.812515
    166 O25        -9.4410    0.1120   -1.1260 o         1 MOL     -0.746843
    167 O26        -9.3210    1.3330   -2.9990 o         1 MOL     -0.746843
    168 H71        -6.4840    4.0360   -1.7170 hn        1 MOL      0.270960
    169 H72        -5.3450    2.2270    0.0840 h1        1 MOL      0.011605
    170 H73        -7.1340    0.9590   -0.1160 hc        1 MOL      0.021964
    171 H74        -6.6670    1.8140   -1.6650 hc        1 MOL      0.021964
    172 H75        -8.6320    3.2850   -1.3350 hc        1 MOL      0.064447
    173 H76        -9.1770    2.3170    0.0550 hc        1 MOL      0.064447
    174 N15        -6.7390    2.2310    2.3090 n         1 MOL     -0.460997
    175 C58        -6.7140    2.4090    3.7160 c3        1 MOL     -0.601401
    176 H77        -5.7550    2.0700    4.1080 h1        1 MOL      0.206989
    177 H78        -6.8500    3.4640    3.9520 h1        1 MOL      0.206989
    178 H79        -7.5170    1.8290    4.1710 h1        1 MOL      0.206989
    179 H80        -6.4120    1.3310    1.9750 hn        1 MOL      0.386967
    180 Ca1        -8.1540   -2.2260   -0.9100 Ca        1 MOL      1.639348
    181 O27       -10.1550   -2.3090   -2.8570 oh        1 MOL     -0.916170
    182 H81       -10.9300   -2.8560   -2.7440 ho        1 MOL      0.423257
    183 H82       -10.4740   -1.5110   -3.2660 ho        1 MOL      0.423257
    184 O28        -8.3010   -4.5850   -2.1700 oh        1 MOL     -0.916170
    185 H83        -9.0510   -5.0990   -2.4780 ho        1 MOL      0.423257
    186 H84        -7.6640   -4.6470   -2.8750 ho        1 MOL      0.423257
    187 O29        -7.4930   -0.8120   -3.1480 oh        1 MOL     -0.916170
    188 H85        -7.0050   -0.8610   -3.9760 ho        1 MOL      0.423257
    189 H86        -8.1020   -0.0880   -3.2840 ho        1 MOL      0.423257
    190 O30        -7.9860   -1.1100    1.5570 oh        1 MOL     -0.916170
    191 H87        -8.8250   -1.1610    1.9970 ho        1 MOL      0.423257
    192 H88        -7.3620   -0.8730    2.2380 ho        1 MOL      0.423257
@<TRIPOS>BOND
     1    1    2 1   
     2    1    4 1   
     3    1    5 1   
     4    1    6 1   
     5    2    3 2   
     6    2    7 1   
     7    7    8 1   
     8    7   15 1   
     9    8    9 1   
    10    8   11 1   
    11    8   16 1   
    12    9   10 2   
    13    9   19 1   
    14   11   12 1   
    15   11   17 1   
    16   11   18 1   
    17   12   13 1   
    18   12   14 1   
    19   19   20 1   
    20   19   27 1   
    21   20   21 1   
    22   20   23 1   
    23   20   28 1   
    24   21   22 2   
    25   21   38 1   
    26   23   24 1   
    27   23   25 1   
    28   23   29 1   
    29   24   26 1   
    30   24   30 1   
    31   24   31 1   
    32   25   32 1   
    33   25   33 1   
    34   25   34 1   
    35   26   35 1   
    36   26   36 1   
    37   26   37 1   
    38   38   39 1   
    39   38   46 1   
    40   39   40 1   
    41   39   42 1   
    42   39   47 1   
    43   40   41 2   
    44   40   50 1   
    45   42   43 1   
    46   42   48 1   
    47   42   49 1   
    48   43   44 1   
    49   43   45 1   
    50   50   51 1   
    51   50   54 1   
    52   51   52 1   
    53   51   55 1   
    54   51   56 1   
    55   52   53 2   
    56   52   57 1   
    57   57   58 1   
    58   57   65 1   
    59   58   59 1   
    60   58   61 1   
    61   58   66 1   
    62   59   60 2   
    63   59   69 1   
    64   61   62 1   
    65   61   67 1   
    66   61   68 1   
    67   62   63 1   
    68   62   64 1   
    69   69   70 1   
    70   69   73 1   
    71   70   71 1   
    72   70   74 1   
    73   70   75 1   
    74   71   72 2   
    75   71   76 1   
    76   76   77 1   
    77   76   85 1   
    78   77   78 1   
    79   77   80 1   
    80   77   86 1   
    81   78   79 2   
    82   78   93 1   
    83   80   81 1   
    84   80   87 1   
    85   80   88 1   
    86   81   82 1   
    87   81   89 1   
    88   81   90 1   
    89   82   83 1   
    90   82   84 2   
    91   83   91 1   
    92   83   92 1   
    93   93   94 1   
    94   93  100 1   
    95   94   95 1   
    96   94   97 1   
    97   94  101 1   
    98   95   96 2   
    99   95  109 1   
   100   97   98 1   
   101   97   99 1   
   102   97  102 1   
   103   98  103 1   
   104   98  104 1   
   105   98  105 1   
   106   99  106 1   
   107   99  107 1   
   108   99  108 1   
   109  109  110 1   
   110  109  117 1   
   111  110  111 1   
   112  110  113 1   
   113  110  118 1   
   114  111  112 2   
   115  111  123 1   
   116  113  114 1   
   117  113  119 1   
   118  113  120 1   
   119  114  115 1   
   120  114  116 2   
   121  115  121 1   
   122  115  122 1   
   123  123  124 1   
   124  123  135 1   
   125  124  125 1   
   126  124  127 1   
   127  124  136 1   
   128  125  126 2   
   129  125  144 1   
   130  127  128 1   
   131  127  137 1   
   132  127  138 1   
   133  128  129 ar  
   134  128  130 ar  
   135  129  131 ar  
   136  129  139 1   
   137  130  132 ar  
   138  130  140 1   
   139  131  133 ar  
   140  131  141 1   
   141  132  133 ar  
   142  132  142 1   
   143  133  134 1   
   144  134  143 1   
   145  144  145 1   
   146  144  153 1   
   147  145  146 1   
   148  145  148 1   
   149  145  154 1   
   150  146  147 2   
   151  146  159 1   
   152  148  149 1   
   153  148  155 1   
   154  148  156 1   
   155  149  150 1   
   156  149  157 1   
   157  149  158 1   
   158  150  151 1   
   159  150  152 1   
   160  159  160 1   
   161  159  168 1   
   162  160  161 1   
   163  160  163 1   
   164  160  169 1   
   165  161  162 2   
   166  161  174 1   
   167  163  164 1   
   168  163  170 1   
   169  163  171 1   
   170  164  165 1   
   171  164  172 1   
   172  164  173 1   
   173  165  166 1   
   174  165  167 1   
   175  174  175 1   
   176  174  179 1   
   177  175  176 1   
   178  175  177 1   
   179  175  178 1   
   180  181  182 1   
   181  181  183 1   
   182  184  185 1   
   183  184  186 1   
   184  187  188 1   
   185  187  189 1   
   186  190  191 1   
   187  190  192 1   
@<TRIPOS>SUBSTRUCTURE
     1 MOL         1 TEMP              0 ****  ****    0 ROOT
