@<TRIPOS>MOLECULE
MOL
  189   185     1     0     0
SMALL
resp


@<TRIPOS>ATOM
      1 C1         -6.6810   -3.6280    4.0820 c3        1 MOL     -0.224486
      2 C2         -5.8160   -2.9030    3.0600 c         1 MOL      0.712002
      3 O1         -5.4770   -3.4140    2.0290 o         1 MOL     -0.587784
      4 H1         -6.3730   -4.6720    4.1420 hc        1 MOL      0.051710
      5 H2         -6.5640   -3.1570    5.0580 hc        1 MOL      0.051710
      6 H3         -7.7260   -3.5770    3.7760 hc        1 MOL      0.051710
      7 N1         -5.7060   -1.5670    3.2140 n         1 MOL     -0.475772
      8 C3         -5.2650   -0.6590    2.1430 c3        1 MOL      0.330443
      9 C4         -3.7310   -0.7440    1.8390 c         1 MOL     -0.030612
     10 O2         -3.2820   -0.0990    0.8690 o         1 MOL      0.096637
     11 C5         -5.6890    0.8030    2.4410 c3        1 MOL     -0.086593
     12 C6         -7.1080    1.1240    2.8850 c         1 MOL      0.688946
     13 O3         -7.5210    0.6660    3.9840 o         1 MOL     -0.706802
     14 O4         -7.7660    1.7810    2.0900 o         1 MOL     -0.706802
     15 H4         -5.8100   -1.1370    4.1180 hn        1 MOL      0.229027
     16 H5         -5.6910   -0.9470    1.1840 h1        1 MOL      0.041503
     17 H6         -5.5020    1.4440    1.5720 hc        1 MOL     -0.040566
     18 H7         -5.0280    1.2180    3.1960 hc        1 MOL     -0.040566
     19 N2         -2.9440   -1.5330    2.6300 n         1 MOL     -0.175601
     20 C7         -1.4970   -1.5740    2.4680 c3        1 MOL     -0.074959
     21 C8         -1.0090   -2.7660    1.6410 c         1 MOL      0.545203
     22 O5         -1.5110   -3.8340    1.9000 o         1 MOL     -0.547176
     23 C9         -0.7670   -1.5530    3.8590 c3        1 MOL     -0.305496
     24 C10        -1.1120   -0.3260    4.7500 c3        1 MOL      0.015816
     25 C11        -0.6120   -0.5580    6.2410 c3        1 MOL      0.039156
     26 C12        -0.6900    0.6670    7.1920 c3        1 MOL      0.046799
     27 N3         -0.1250    0.5030    8.5150 n4        1 MOL     -0.400766
     28 H8         -3.4420   -2.0670    3.3330 hn        1 MOL      0.207735
     29 H9         -1.1250   -0.7040    1.9330 h1        1 MOL      0.098102
     30 H10         0.3180   -1.6380    3.7690 hc        1 MOL      0.110500
     31 H11        -1.1240   -2.4360    4.3810 hc        1 MOL      0.110500
     32 H12        -2.1870   -0.1420    4.7700 hc        1 MOL      0.029437
     33 H13        -0.5750    0.5260    4.3320 hc        1 MOL      0.029437
     34 H14         0.4240   -0.8930    6.1670 hc        1 MOL      0.019693
     35 H15        -1.1570   -1.4260    6.6270 hc        1 MOL      0.019693
     36 H16        -1.7400    0.9540    7.2620 hx        1 MOL      0.070492
     37 H17        -0.1610    1.4400    6.6250 hx        1 MOL      0.070492
     38 H18        -0.7120   -0.1530    9.0180 hn        1 MOL      0.329824
     39 H19         0.8850    0.3950    8.5690 hn        1 MOL      0.329824
     40 H20        -0.2850    1.3530    9.0260 hn        1 MOL      0.329824
     41 N4         -0.0360   -2.7080    0.7980 n         1 MOL     -0.203696
     42 C13         0.7320   -1.5130    0.3420 c3        1 MOL     -0.120628
     43 C14         1.4490   -0.5760    1.3840 c         1 MOL      0.428786
     44 O6          0.8820    0.4840    1.6270 o         1 MOL     -0.533234
     45 C15        -0.0580   -0.7690   -0.7470 c3        1 MOL     -0.005632
     46 C16        -0.1410   -1.4870   -2.0230 c         1 MOL      0.538603
     47 O7          0.5280   -2.5250   -2.2600 o         1 MOL     -0.700001
     48 O8         -0.7060   -0.8570   -2.9490 o         1 MOL     -0.700001
     49 H21         0.1750   -3.5770    0.3310 hn        1 MOL      0.131003
     50 H22         1.5790   -1.9840   -0.1470 h1        1 MOL      0.016504
     51 H23         0.3900    0.2050   -0.9520 hc        1 MOL      0.113545
     52 H24        -1.0460   -0.6620   -0.2880 hc        1 MOL      0.113545
     53 N5          2.5410   -0.8790    2.0460 n         1 MOL     -0.271913
     54 C17         3.3300   -2.0770    1.8010 c3        1 MOL     -0.006834
     55 C18         4.3520   -2.4930    2.9000 c         1 MOL      0.540514
     56 O9          4.1650   -2.0080    4.0480 o         1 MOL     -0.558897
     57 H25         2.9130   -0.1880    2.6720 hn        1 MOL      0.292130
     58 H26         3.8830   -1.8250    0.9010 h1        1 MOL      0.044387
     59 H27         2.6920   -2.9210    1.5410 h1        1 MOL      0.044387
     60 N6          5.2630   -3.4580    2.6730 n         1 MOL     -0.385082
     61 C19         5.5090   -4.0100    1.3710 c3        1 MOL     -0.038226
     62 C20         6.3120   -3.0960    0.4360 c         1 MOL      0.469689
     63 O10         7.3500   -2.5540    0.8550 o         1 MOL     -0.454231
     64 C21         6.2520   -5.3970    1.5120 c3        1 MOL     -0.206229
     65 C22         7.5700   -5.3720    2.3160 c         1 MOL      0.718140
     66 O11         8.7040   -5.4540    1.7890 o         1 MOL     -0.619918
     67 O12         7.5160   -5.4510    3.5920 o         1 MOL     -0.619918
     68 H28         5.9380   -3.7330    3.3690 hn        1 MOL      0.266545
     69 H29         4.5310   -4.2790    0.9790 h1        1 MOL      0.057281
     70 H30         6.2870   -5.8090    0.5040 hc        1 MOL      0.038588
     71 H31         5.5520   -6.0060    2.0910 hc        1 MOL      0.038588
     72 N7          5.9420   -3.0810   -0.8160 n         1 MOL     -0.133359
     73 C23         6.6820   -2.4850   -1.9640 c3        1 MOL     -0.279048
     74 C24         6.4590   -1.0330   -2.1060 c         1 MOL      0.670239
     75 O13         7.3750   -0.2580   -2.0050 o         1 MOL     -0.524483
     76 H32         5.1130   -3.6330   -1.0090 hn        1 MOL      0.135860
     77 H33         6.4010   -2.9650   -2.9060 h1        1 MOL      0.122900
     78 H34         7.7250   -2.7850   -1.8730 h1        1 MOL      0.122900
     79 N8          5.1750   -0.6320   -2.2890 n         1 MOL     -0.537419
     80 C25         4.8930    0.7900   -2.6010 c3        1 MOL     -0.141175
     81 C26         4.9960    1.5170   -1.2550 c         1 MOL      0.443447
     82 O14         4.7870    0.9350   -0.1650 o         1 MOL     -0.397406
     83 C27         3.5450    1.0310   -3.2410 c3        1 MOL      0.562685
     84 C28         3.4480    0.2670   -4.5310 c3        1 MOL     -0.269628
     85 O15         3.3320    2.3730   -3.5780 oh        1 MOL     -0.687402
     86 H35         4.4650   -1.3140   -2.4850 hn        1 MOL      0.266188
     87 H36         5.6640    1.1340   -3.2750 h1        1 MOL      0.133685
     88 H37         2.7310    0.6920   -2.5940 h1        1 MOL     -0.002744
     89 H38         2.3840    2.4540   -3.6600 ho        1 MOL      0.438214
     90 H39         2.6060    0.6740   -5.0890 hc        1 MOL      0.045561
     91 H40         4.4190    0.3360   -5.0290 hc        1 MOL      0.045561
     92 H41         3.1970   -0.7750   -4.3480 hc        1 MOL      0.045561
     93 N9          5.5170    2.7580   -1.4050 n         1 MOL     -0.447093
     94 C29         5.8450    3.6140   -0.2630 c3        1 MOL     -0.067956
     95 C30         4.6050    3.8800    0.5350 c         1 MOL      0.356235
     96 O16         4.7320    3.9400    1.7630 o         1 MOL     -0.508522
     97 C31         6.6570    4.8900   -0.7240 c3        1 MOL      0.045359
     98 C32         7.8040    4.4540   -1.5440 c3        1 MOL     -0.003133
     99 C33         7.1110    5.7090    0.5260 c3        1 MOL     -0.273915
    100 C34         8.6670    5.5760   -2.0860 c3        1 MOL     -0.246602
    101 H42         5.6980    3.1130   -2.3370 hn        1 MOL      0.313109
    102 H43         6.4810    3.0090    0.3780 h1        1 MOL      0.150531
    103 H44         6.0130    5.5550   -1.3070 hc        1 MOL      0.055627
    104 H45         7.3680    3.9060   -2.3810 hc        1 MOL      0.046516
    105 H46         8.5540    3.8290   -1.0550 hc        1 MOL      0.046516
    106 H47         7.7750    6.5230    0.2260 hc        1 MOL      0.084766
    107 H48         6.2560    5.9610    1.1430 hc        1 MOL      0.084766
    108 H49         7.7050    5.0640    1.1760 hc        1 MOL      0.084766
    109 H50         8.0860    6.3320   -2.6140 hc        1 MOL      0.060878
    110 H51         9.3340    6.0230   -1.3580 hc        1 MOL      0.060878
    111 H52         9.3030    5.0310   -2.7900 hc        1 MOL      0.060878
    112 N10         3.4170    3.9770   -0.0730 n         1 MOL     -0.211689
    113 C35         2.1760    4.4030    0.5820 c3        1 MOL      0.096851
    114 C36         0.9880    3.5050    0.3160 c         1 MOL      0.559918
    115 O17         1.0470    2.6400   -0.6140 o         1 MOL     -0.568870
    116 C37         2.0400    5.8560    0.2620 c3        1 MOL      0.457229
    117 C38         1.8220    6.2360   -1.2330 c3        1 MOL     -0.331713
    118 O18         3.1330    6.6230    0.6820 oh        1 MOL     -0.614415
    119 H53         3.3000    3.7120   -1.0430 hn        1 MOL      0.148126
    120 H54         2.3100    4.5070    1.6530 h1        1 MOL      0.012924
    121 H55         1.1390    6.2170    0.7530 h1        1 MOL     -0.080176
    122 H56         3.0990    6.7350    1.6350 ho        1 MOL      0.378870
    123 H57         1.7150    7.3180   -1.2540 hc        1 MOL      0.080553
    124 H58         2.7460    5.9200   -1.7210 hc        1 MOL      0.080553
    125 H59         0.9190    5.8000   -1.6490 hc        1 MOL      0.080553
    126 N11        -0.1340    3.7150    0.9980 n         1 MOL     -0.559531
    127 C39        -1.3170    2.8680    0.8380 c3        1 MOL      0.084231
    128 C40        -2.0660    2.9850   -0.5160 c         1 MOL      0.481263
    129 O19        -1.8430    3.9180   -1.2540 o         1 MOL     -0.552269
    130 C41        -2.1680    2.9490    2.0600 c3        1 MOL      0.585618
    131 C42        -3.3640    3.9140    2.0660 c3        1 MOL     -0.329329
    132 O20        -1.4280    3.1240    3.2260 oh        1 MOL     -0.669569
    133 H60        -0.2180    4.3740    1.7550 hn        1 MOL      0.291149
    134 H61        -0.9410    1.8410    0.8760 h1        1 MOL      0.072472
    135 H62        -2.5490    1.9550    2.2590 h1        1 MOL     -0.055609
    136 H63        -2.0410    3.1570    3.9620 ho        1 MOL      0.351837
    137 H64        -4.1360    3.4120    1.4810 hc        1 MOL      0.062773
    138 H65        -3.8040    4.0920    3.0470 hc        1 MOL      0.062773
    139 H66        -3.1420    4.8380    1.5390 hc        1 MOL      0.062773
    140 N12        -3.0020    2.0840   -0.6600 n         1 MOL     -0.088983
    141 C43        -3.9700    2.0770   -1.7800 c3        1 MOL      0.007003
    142 C44        -4.2560    0.6830   -2.4410 c         1 MOL      0.643352
    143 O21        -4.5820    0.6480   -3.6320 o         1 MOL     -0.649605
    144 C45        -5.2520    2.7390   -1.2670 c3        1 MOL     -0.232456
    145 C46        -6.4230    2.6910   -2.3060 c3        1 MOL      0.333409
    146 C47        -7.6320    3.6410   -2.0890 c3        1 MOL     -0.019155
    147 C48        -7.1690    5.0780   -2.1320 c3        1 MOL     -0.028627
    148 N13        -8.3560    5.9610   -2.4090 n4        1 MOL     -0.248319
    149 H67        -2.9660    1.2650   -0.0690 hn        1 MOL     -0.242186
    150 H68        -3.5820    2.7050   -2.5850 h1        1 MOL      0.070556
    151 H69        -4.9900    3.7550   -0.9800 hc        1 MOL      0.066749
    152 H70        -5.6400    2.2900   -0.3510 hc        1 MOL      0.066749
    153 H71        -6.7460    1.6710   -2.4680 hc        1 MOL     -0.088960
    154 H72        -6.0030    2.9470   -3.2770 hc        1 MOL     -0.088960
    155 H73        -8.0720    3.3610   -1.1400 hc        1 MOL      0.029628
    156 H74        -8.3610    3.3950   -2.8600 hc        1 MOL      0.029628
    157 H75        -6.4510    5.2500   -2.9330 hx        1 MOL      0.093648
    158 H76        -6.8040    5.4040   -1.1640 hx        1 MOL      0.093648
    159 H77        -8.6940    5.7050   -3.3210 hn        1 MOL      0.290777
    160 H78        -9.1690    5.7960   -1.8420 hn        1 MOL      0.290777
    161 H79        -8.0590    6.9200   -2.5240 hn        1 MOL      0.290777
    162 N14        -4.1720   -0.4580   -1.6990 n         1 MOL     -0.262105
    163 C49        -4.5000   -1.7860   -2.1480 c3        1 MOL      0.085588
    164 C50        -6.0430   -1.8330   -1.9680 c         1 MOL      0.136563
    165 O22        -6.5960   -1.8730   -0.8620 o         1 MOL     -0.410516
    166 C51        -3.7260   -2.7690   -1.2570 c3        1 MOL      0.290052
    167 C52        -3.8620   -4.2120   -1.7530 c3        1 MOL     -0.569303
    168 C53        -3.6640   -4.4310   -3.2250 c         1 MOL      0.474064
    169 O23        -4.6540   -4.5510   -3.9430 o         1 MOL     -0.646238
    170 O24        -2.5310   -4.2000   -3.7270 o         1 MOL     -0.646238
    171 H80        -3.9280   -0.2930   -0.7400 hn        1 MOL      0.055103
    172 H81        -4.2440   -1.9230   -3.2010 h1        1 MOL      0.163501
    173 H82        -4.2230   -2.7090   -0.2850 hc        1 MOL     -0.066838
    174 H83        -2.6640   -2.5860   -1.1130 hc        1 MOL     -0.066838
    175 H84        -4.9390   -4.3330   -1.6070 hc        1 MOL      0.192842
    176 H85        -3.2520   -4.8890   -1.1580 hc        1 MOL      0.192842
    177 N15        -6.7110   -2.0960   -3.0990 n         1 MOL      0.027286
    178 C54        -8.1480   -2.3400   -3.0610 c3        1 MOL     -0.159613
    179 H86        -8.3370   -3.3280   -2.6420 h1        1 MOL      0.072391
    180 H87        -8.6290   -1.5840   -2.4390 h1        1 MOL      0.072391
    181 H88        -8.5520   -2.2900   -4.0720 h1        1 MOL      0.072391
    182 H89        -6.1700   -1.9090   -3.9350 hn        1 MOL      0.207129
    183 Ca1         0.0240   -4.4690   -3.7650 Ca        1 MOL      1.585814
    184 O25         0.4290   -2.1140   -5.1830 oh        1 MOL     -0.908978
    185 H90         0.6180   -1.6660   -6.0040 ho        1 MOL      0.444292
    186 H91         0.1380   -1.4210   -4.5890 ho        1 MOL      0.444292
    187 O26         1.1670   -4.8700   -6.0950 oh        1 MOL     -0.908978
    188 H92         1.8630   -4.4460   -6.6030 ho        1 MOL      0.444292
    189 H93         0.6620   -5.3630   -6.7390 ho        1 MOL      0.444292
@<TRIPOS>BOND
     1    1    2 1   
     2    1    4 1   
     3    1    5 1   
     4    1    6 1   
     5    2    3 2   
     6    2    7 1   
     7    7    8 1   
     8    7   15 1   
     9    8    9 1   
    10    8   11 1   
    11    8   16 1   
    12    9   10 2   
    13    9   19 1   
    14   11   12 1   
    15   11   17 1   
    16   11   18 1   
    17   12   13 1   
    18   12   14 1   
    19   19   20 1   
    20   19   28 1   
    21   20   21 1   
    22   20   23 1   
    23   20   29 1   
    24   21   22 2   
    25   21   41 1   
    26   23   24 1   
    27   23   30 1   
    28   23   31 1   
    29   24   25 1   
    30   24   32 1   
    31   24   33 1   
    32   25   26 1   
    33   25   34 1   
    34   25   35 1   
    35   26   27 1   
    36   26   36 1   
    37   26   37 1   
    38   27   38 1   
    39   27   39 1   
    40   27   40 1   
    41   41   42 1   
    42   41   49 1   
    43   42   43 1   
    44   42   45 1   
    45   42   50 1   
    46   43   44 2   
    47   43   53 1   
    48   45   46 1   
    49   45   51 1   
    50   45   52 1   
    51   46   47 1   
    52   46   48 1   
    53   53   54 1   
    54   53   57 1   
    55   54   55 1   
    56   54   58 1   
    57   54   59 1   
    58   55   56 2   
    59   55   60 1   
    60   60   61 1   
    61   60   68 1   
    62   61   62 1   
    63   61   64 1   
    64   61   69 1   
    65   62   63 2   
    66   62   72 1   
    67   64   65 1   
    68   64   70 1   
    69   64   71 1   
    70   65   66 1   
    71   65   67 1   
    72   72   73 1   
    73   72   76 1   
    74   73   74 1   
    75   73   77 1   
    76   73   78 1   
    77   74   75 2   
    78   74   79 1   
    79   79   80 1   
    80   79   86 1   
    81   80   81 1   
    82   80   83 1   
    83   80   87 1   
    84   81   82 2   
    85   81   93 1   
    86   83   84 1   
    87   83   85 1   
    88   83   88 1   
    89   84   90 1   
    90   84   91 1   
    91   84   92 1   
    92   85   89 1   
    93   93   94 1   
    94   93  101 1   
    95   94   95 1   
    96   94   97 1   
    97   94  102 1   
    98   95   96 2   
    99   95  112 1   
   100   97   98 1   
   101   97   99 1   
   102   97  103 1   
   103   98  100 1   
   104   98  104 1   
   105   98  105 1   
   106   99  106 1   
   107   99  107 1   
   108   99  108 1   
   109  100  109 1   
   110  100  110 1   
   111  100  111 1   
   112  112  113 1   
   113  112  119 1   
   114  113  114 1   
   115  113  116 1   
   116  113  120 1   
   117  114  115 2   
   118  114  126 1   
   119  116  117 1   
   120  116  118 1   
   121  116  121 1   
   122  117  123 1   
   123  117  124 1   
   124  117  125 1   
   125  118  122 1   
   126  126  127 1   
   127  126  133 1   
   128  127  128 1   
   129  127  130 1   
   130  127  134 1   
   131  128  129 2   
   132  128  140 1   
   133  130  131 1   
   134  130  132 1   
   135  130  135 1   
   136  131  137 1   
   137  131  138 1   
   138  131  139 1   
   139  132  136 1   
   140  140  141 1   
   141  140  149 1   
   142  141  142 1   
   143  141  144 1   
   144  141  150 1   
   145  142  143 2   
   146  142  162 1   
   147  144  145 1   
   148  144  151 1   
   149  144  152 1   
   150  145  146 1   
   151  145  153 1   
   152  145  154 1   
   153  146  147 1   
   154  146  155 1   
   155  146  156 1   
   156  147  148 1   
   157  147  157 1   
   158  147  158 1   
   159  148  159 1   
   160  148  160 1   
   161  148  161 1   
   162  162  163 1   
   163  162  171 1   
   164  163  164 1   
   165  163  166 1   
   166  163  172 1   
   167  164  165 2   
   168  164  177 1   
   169  166  167 1   
   170  166  173 1   
   171  166  174 1   
   172  167  168 1   
   173  167  175 1   
   174  167  176 1   
   175  168  169 1   
   176  168  170 1   
   177  177  178 1   
   178  177  182 1   
   179  178  179 1   
   180  178  180 1   
   181  178  181 1   
   182  184  185 1   
   183  184  186 1   
   184  187  188 1   
   185  187  189 1   
@<TRIPOS>SUBSTRUCTURE
     1 MOL         1 TEMP              0 ****  ****    0 ROOT
