@<TRIPOS>MOLECULE
MOL
  182   178     1     0     0
SMALL
resp


@<TRIPOS>ATOM
      1 C1         -2.1170   -4.6440    5.5110 c3        1 MOL     -0.355483
      2 C2         -1.9180   -3.9400    4.1390 c         1 MOL      0.709878
      3 O1         -2.7280   -4.1100    3.2340 o         1 MOL     -0.587382
      4 H1         -1.1680   -4.6720    6.0450 hc        1 MOL      0.090380
      5 H2         -2.8490   -4.0920    6.1000 hc        1 MOL      0.090380
      6 H3         -2.4730   -5.6620    5.3480 hc        1 MOL      0.090380
      7 N1         -0.8520   -3.1420    4.0290 n         1 MOL     -0.371727
      8 C3         -0.2580   -2.7750    2.7210 c3        1 MOL     -0.056662
      9 C4          0.0590   -4.0840    1.9660 c         1 MOL      0.485092
     10 O2          0.6860   -4.9920    2.5290 o         1 MOL     -0.534133
     11 C5          0.9610   -1.8840    2.9260 c3        1 MOL     -0.128863
     12 C6          1.6880   -1.4630    1.6460 c         1 MOL      0.952106
     13 O3          2.7670   -0.7810    1.7150 o         1 MOL     -0.836784
     14 O4          1.3070   -1.8250    0.5220 o         1 MOL     -0.836784
     15 H4         -0.1910   -3.2130    4.7960 hn        1 MOL      0.262990
     16 H5         -0.9570   -2.3000    2.0330 h1        1 MOL      0.029828
     17 H6          1.7930   -2.3740    3.4440 hc        1 MOL      0.061378
     18 H7          0.6620   -1.0600    3.5650 hc        1 MOL      0.061378
     19 N2         -0.3370   -4.1840    0.6620 n         1 MOL     -0.184986
     20 C7         -0.2390   -5.3870   -0.1360 c3        1 MOL     -0.327854
     21 C8          1.1400   -5.6190   -0.8510 c         1 MOL      0.758336
     22 O5          1.3760   -6.6340   -1.4750 o         1 MOL     -0.588171
     23 C9         -1.2660   -5.3120   -1.3140 c3        1 MOL      0.002421
     24 C10        -2.6540   -5.5860   -0.8730 c3        1 MOL      0.105681
     25 C11        -3.6950   -5.7100   -2.0300 c3        1 MOL     -0.023460
     26 C12        -3.3020   -6.6700   -3.1160 c3        1 MOL      0.041495
     27 N3         -4.1150   -6.4260   -4.3050 n4        1 MOL     -0.331230
     28 H8         -0.6950   -3.3320    0.2580 hn        1 MOL      0.228537
     29 H9         -0.4150   -6.2360    0.5310 h1        1 MOL      0.162050
     30 H10        -0.9970   -6.0830   -2.0300 hc        1 MOL     -0.007775
     31 H11        -1.3170   -4.3320   -1.7850 hc        1 MOL     -0.007775
     32 H12        -2.9630   -4.8940   -0.0970 hc        1 MOL      0.019704
     33 H13        -2.6550   -6.5870   -0.4160 hc        1 MOL      0.019704
     34 H14        -3.9520   -4.7400   -2.4530 hc        1 MOL      0.014919
     35 H15        -4.5730   -6.1350   -1.5490 hc        1 MOL      0.014919
     36 H16        -3.4650   -7.6790   -2.7520 hx        1 MOL      0.093523
     37 H17        -2.2700   -6.6210   -3.4550 hx        1 MOL      0.093523
     38 H18        -4.1960   -5.4650   -4.5940 hn        1 MOL      0.310202
     39 H19        -3.8410   -6.9470   -5.1270 hn        1 MOL      0.310202
     40 H20        -5.0710   -6.6990   -4.1310 hn        1 MOL      0.310202
     41 N4          2.1170   -4.7590   -0.6670 n         1 MOL     -0.505905
     42 C13         3.3240   -4.8100   -1.5500 c3        1 MOL      0.012458
     43 C14         4.6770   -4.6120   -0.7950 c         1 MOL      0.340433
     44 O6          5.7760   -4.8030   -1.3980 o         1 MOL     -0.530487
     45 C15         3.1850   -3.7700   -2.7570 c3        1 MOL     -0.390484
     46 C16         3.0830   -2.3380   -2.2790 c         1 MOL      0.955793
     47 O7          3.8230   -1.9100   -1.3820 o         1 MOL     -0.793768
     48 O8          2.4040   -1.5430   -2.9300 o         1 MOL     -0.793768
     49 H21         1.9560   -3.8560   -0.2600 hn        1 MOL      0.206580
     50 H22         3.4430   -5.7650   -2.0510 h1        1 MOL      0.143674
     51 H23         2.2600   -4.0750   -3.2580 hc        1 MOL      0.112865
     52 H24         4.0500   -3.8320   -3.4140 hc        1 MOL      0.112865
     53 N5          4.6650   -4.0620    0.4260 n         1 MOL     -0.041061
     54 C17         5.7590   -3.8100    1.3180 c3        1 MOL     -0.345937
     55 C18         6.6990   -2.6840    0.8550 c         1 MOL      0.628771
     56 O9          7.7270   -2.3980    1.6010 o         1 MOL     -0.588419
     57 H25         3.7400   -4.0010    0.8220 hn        1 MOL      0.209953
     58 H26         6.2240   -4.7810    1.4770 h1        1 MOL      0.138972
     59 H27         5.3130   -3.4270    2.2420 h1        1 MOL      0.138972
     60 N6          6.2820   -1.8960   -0.1480 n         1 MOL     -0.348736
     61 C19         7.0620   -0.7670   -0.6410 c3        1 MOL      0.076769
     62 C20         6.1960    0.5700   -0.8640 c         1 MOL      0.473986
     63 O10         4.9530    0.6270   -0.9610 o         1 MOL     -0.450485
     64 C21         7.8820   -1.2520   -1.8670 c3        1 MOL     -0.225747
     65 C22         7.0620   -1.4540   -3.1600 c         1 MOL      0.554884
     66 N7          6.6590   -2.6580   -3.3880 n         1 MOL     -0.560363
     67 O11         6.8520   -0.5980   -3.9710 o         1 MOL     -0.552136
     68 H28         5.3830   -2.0230   -0.5760 hn        1 MOL      0.282975
     69 H29         7.8420   -0.5860    0.0920 h1        1 MOL      0.055593
     70 H30         8.4030   -2.1650   -1.5690 hc        1 MOL      0.071963
     71 H31         8.6690   -0.5160   -2.0250 hc        1 MOL      0.071963
     72 H32         7.1320   -3.4210   -2.9390 hn        1 MOL      0.294791
     73 H33         6.2060   -2.8350   -4.2790 hn        1 MOL      0.294791
     74 N8          6.8810    1.7130   -0.8640 n         1 MOL     -0.410541
     75 C23         6.3160    3.0160   -1.1630 c3        1 MOL     -0.183503
     76 C24         5.2820    3.5220   -0.1780 c         1 MOL      0.677060
     77 O12         5.5230    3.1900    0.9900 o         1 MOL     -0.513030
     78 H34         7.8580    1.6350   -0.6390 hn        1 MOL      0.326409
     79 H35         5.9050    2.9510   -2.1760 h1        1 MOL      0.100322
     80 H36         7.0620    3.7950   -1.0260 h1        1 MOL      0.100322
     81 N9          4.2470    4.2310   -0.5880 n         1 MOL     -0.632430
     82 C25         3.0590    4.5660    0.2250 c3        1 MOL      0.296807
     83 C26         2.4810    3.3380    0.9320 c         1 MOL      0.120653
     84 O13         2.7380    2.1570    0.6130 o         1 MOL     -0.345535
     85 C27         1.9730    5.1390   -0.6630 c3        1 MOL     -0.071459
     86 C28         2.1710    6.5960   -1.0090 ca        1 MOL      0.008710
     87 C29         2.1480    7.5910    0.0260 ca        1 MOL     -0.129305
     88 C30         2.2460    7.0240   -2.3430 ca        1 MOL     -0.129305
     89 C31         2.4230    8.9600   -0.2590 ca        1 MOL     -0.269363
     90 C32         2.3890    8.3820   -2.6480 ca        1 MOL     -0.269363
     91 C33         2.5070    9.3660   -1.6440 ca        1 MOL      0.321388
     92 O14         2.7500   10.6760   -2.0590 oh        1 MOL     -0.443746
     93 H37         4.2150    4.6200   -1.5210 hn        1 MOL      0.289139
     94 H38         3.4900    5.2670    0.9470 h1        1 MOL      0.060529
     95 H39         1.0070    5.0130   -0.1850 hc        1 MOL      0.040783
     96 H40         1.9530    4.6050   -1.6120 hc        1 MOL      0.040783
     97 H41         2.1450    7.2500    1.0480 ha        1 MOL      0.115461
     98 H42         2.2440    6.3330   -3.1740 ha        1 MOL      0.115461
     99 H43         2.5050    9.7930    0.4370 ha        1 MOL      0.169717
    100 H44         2.4850    8.6720   -3.6850 ha        1 MOL      0.169717
    101 H45         2.7590   10.6000   -3.0080 ho        1 MOL      0.330759
    102 N10         1.6390    3.6820    1.9510 n         1 MOL     -0.294140
    103 C34         1.0710    2.8090    2.9640 c3        1 MOL      0.124658
    104 C35        -0.0710    1.8490    2.3790 c         1 MOL      0.394900
    105 O15         0.0710    1.2900    1.2160 o         1 MOL     -0.535313
    106 C36         2.1310    2.1460    3.9220 c3        1 MOL     -0.008242
    107 C37         1.4160    1.6710    5.2460 c3        1 MOL     -0.188953
    108 C38         3.3690    3.0170    4.2140 c3        1 MOL      0.069679
    109 C39         2.3300    0.9490    6.1900 c3        1 MOL      0.040830
    110 H46         1.5980    4.6730    2.1230 hn        1 MOL      0.247819
    111 H47         0.4500    3.4380    3.5850 h1        1 MOL      0.024888
    112 H48         2.5400    1.2360    3.4920 hc        1 MOL      0.100249
    113 H49         0.8070    0.8260    4.9200 hc        1 MOL      0.034385
    114 H50         0.8830    2.4830    5.7620 hc        1 MOL      0.034385
    115 H51         3.1020    3.9630    4.6800 hc        1 MOL     -0.007868
    116 H52         4.1850    2.6540    4.8400 hc        1 MOL     -0.007868
    117 H53         3.8270    3.3730    3.2960 hc        1 MOL     -0.007868
    118 H54         1.8180    0.3370    6.9360 hc        1 MOL      0.008914
    119 H55         2.9300    0.2180    5.6570 hc        1 MOL      0.008914
    120 H56         2.9820    1.5940    6.7810 hc        1 MOL      0.008914
    121 N11        -1.1470    1.6750    3.1240 n         1 MOL     -0.538096
    122 C40        -2.0810    0.6080    2.8300 c3        1 MOL      0.044613
    123 C41        -3.1170    0.8990    1.7680 c         1 MOL      0.624741
    124 O16        -4.1000    0.1710    1.6310 o         1 MOL     -0.605246
    125 C42        -2.7820    0.1290    4.1520 c3        1 MOL      0.180221
    126 O17        -1.7760   -0.4200    5.0490 oh        1 MOL     -0.587337
    127 H57        -1.1140    2.0370    4.0690 hn        1 MOL      0.305164
    128 H58        -1.4770   -0.2160    2.4400 h1        1 MOL      0.070173
    129 H59        -3.5310   -0.6400    3.9570 h1        1 MOL      0.062677
    130 H60        -3.4260    0.9650    4.4180 h1        1 MOL      0.062677
    131 H61        -1.2950    0.2780    5.5070 ho        1 MOL      0.351250
    132 N12        -3.0130    1.9110    0.9440 n         1 MOL     -0.464706
    133 C43        -3.9580    2.0510   -0.2110 c3        1 MOL      0.040790
    134 C44        -3.4910    1.2970   -1.4550 c         1 MOL      0.648839
    135 O18        -2.3300    1.5410   -1.8430 o         1 MOL     -0.593415
    136 C45        -4.0790    3.5520   -0.4680 c3        1 MOL     -0.337190
    137 H62        -2.3220    2.6270    1.1000 hn        1 MOL      0.321398
    138 H63        -4.9560    1.7330    0.1140 h1        1 MOL      0.116687
    139 H64        -3.1010    3.9010   -0.7930 hc        1 MOL      0.101764
    140 H65        -4.8790    3.7090   -1.1890 hc        1 MOL      0.101764
    141 H66        -4.2810    4.1030    0.4460 hc        1 MOL      0.101764
    142 N13        -4.1990    0.2780   -1.9850 n         1 MOL     -0.696588
    143 C46        -5.5820    0.0540   -1.5720 c3        1 MOL      0.249903
    144 C47        -6.5950    1.1190   -1.9660 c         1 MOL      0.846380
    145 O19        -6.3120    1.9530   -2.8290 o         1 MOL     -0.610245
    146 C48        -6.0100   -1.3540   -2.0650 c3        1 MOL     -0.313712
    147 H67        -3.8640   -0.1920   -2.8090 hn        1 MOL      0.366241
    148 H68        -5.5940   -0.0970   -0.4960 h1        1 MOL      0.133126
    149 H69        -5.9610   -1.1800   -3.1430 hc        1 MOL      0.072605
    150 H70        -5.3330   -2.1230   -1.6980 hc        1 MOL      0.072605
    151 H71        -7.0330   -1.6790   -1.8820 hc        1 MOL      0.072605
    152 N14        -7.8060    1.2110   -1.3500 n         1 MOL     -0.864520
    153 C49        -8.3040    0.4140   -0.1970 c3        1 MOL     -0.010912
    154 C50        -8.6780    1.2560    1.0430 c         1 MOL      0.478237
    155 O20        -8.3240    0.8380    2.1380 o         1 MOL     -0.543814
    156 C51        -9.4570   -0.5080   -0.5840 c3        1 MOL      0.095636
    157 C52       -10.7210    0.1180   -1.2120 c3        1 MOL     -0.113042
    158 C53       -10.4750    0.7730   -2.5030 c         1 MOL      0.707308
    159 O21       -10.2570    2.0490   -2.5190 o         1 MOL     -0.688430
    160 O22       -10.3070    0.0690   -3.5100 o         1 MOL     -0.688430
    161 H72        -8.5110    1.5710   -1.9800 hn        1 MOL      0.391553
    162 H73        -7.4940   -0.2610    0.1070 h1        1 MOL      0.022226
    163 H74        -9.7820   -1.0520    0.3040 hc        1 MOL      0.011494
    164 H75        -9.0490   -1.2570   -1.2580 hc        1 MOL      0.011494
    165 H76       -11.0800    0.9680   -0.6420 hc        1 MOL     -0.015484
    166 H77       -11.4270   -0.7090   -1.3320 hc        1 MOL     -0.015484
    167 N15        -9.1570    2.4650    0.7700 n         1 MOL     -0.190792
    168 C54        -9.5640    3.5010    1.7270 c3        1 MOL     -0.146888
    169 H78       -10.6380    3.6690    1.6460 h1        1 MOL      0.076736
    170 H79        -9.3230    3.1770    2.7390 h1        1 MOL      0.076736
    171 H80        -9.0330    4.4280    1.5070 h1        1 MOL      0.076736
    172 H81        -9.4590    2.5910   -0.1830 hn        1 MOL      0.225204
    173 Ca1         2.1550    0.1300   -0.8460 Ca        1 MOL      1.778501
    174 O23        -0.2390   -0.5960   -1.8170 oh        1 MOL     -0.821926
    175 H82        -0.5880   -0.8610   -2.6620 ho        1 MOL      0.410607
    176 H83        -0.8560   -0.9550   -1.1740 ho        1 MOL      0.410607
    177 O24         0.3160    2.3690   -1.9100 oh        1 MOL     -0.821926
    178 H84         0.0160    3.1750   -2.3350 ho        1 MOL      0.410607
    179 H85        -0.4620    2.0070   -1.5010 ho        1 MOL      0.410607
    180 O25         2.9850    1.6360   -2.8210 oh        1 MOL     -0.821926
    181 H86         3.8010    1.4070   -3.2740 ho        1 MOL      0.410607
    182 H87         2.6260    2.3730   -3.3190 ho        1 MOL      0.410607
@<TRIPOS>BOND
     1    1    2 1   
     2    1    4 1   
     3    1    5 1   
     4    1    6 1   
     5    2    3 2   
     6    2    7 1   
     7    7    8 1   
     8    7   15 1   
     9    8    9 1   
    10    8   11 1   
    11    8   16 1   
    12    9   10 2   
    13    9   19 1   
    14   11   12 1   
    15   11   17 1   
    16   11   18 1   
    17   12   13 1   
    18   12   14 1   
    19   19   20 1   
    20   19   28 1   
    21   20   21 1   
    22   20   23 1   
    23   20   29 1   
    24   21   22 2   
    25   21   41 1   
    26   23   24 1   
    27   23   30 1   
    28   23   31 1   
    29   24   25 1   
    30   24   32 1   
    31   24   33 1   
    32   25   26 1   
    33   25   34 1   
    34   25   35 1   
    35   26   27 1   
    36   26   36 1   
    37   26   37 1   
    38   27   38 1   
    39   27   39 1   
    40   27   40 1   
    41   41   42 1   
    42   41   49 1   
    43   42   43 1   
    44   42   45 1   
    45   42   50 1   
    46   43   44 2   
    47   43   53 1   
    48   45   46 1   
    49   45   51 1   
    50   45   52 1   
    51   46   47 1   
    52   46   48 1   
    53   53   54 1   
    54   53   57 1   
    55   54   55 1   
    56   54   58 1   
    57   54   59 1   
    58   55   56 2   
    59   55   60 1   
    60   60   61 1   
    61   60   68 1   
    62   61   62 1   
    63   61   64 1   
    64   61   69 1   
    65   62   63 2   
    66   62   74 1   
    67   64   65 1   
    68   64   70 1   
    69   64   71 1   
    70   65   66 1   
    71   65   67 2   
    72   66   72 1   
    73   66   73 1   
    74   74   75 1   
    75   74   78 1   
    76   75   76 1   
    77   75   79 1   
    78   75   80 1   
    79   76   77 2   
    80   76   81 1   
    81   81   82 1   
    82   81   93 1   
    83   82   83 1   
    84   82   85 1   
    85   82   94 1   
    86   83   84 2   
    87   83  102 1   
    88   85   86 1   
    89   85   95 1   
    90   85   96 1   
    91   86   87 ar  
    92   86   88 ar  
    93   87   89 ar  
    94   87   97 1   
    95   88   90 ar  
    96   88   98 1   
    97   89   91 ar  
    98   89   99 1   
    99   90   91 ar  
   100   90  100 1   
   101   91   92 1   
   102   92  101 1   
   103  102  103 1   
   104  102  110 1   
   105  103  104 1   
   106  103  106 1   
   107  103  111 1   
   108  104  105 2   
   109  104  121 1   
   110  106  107 1   
   111  106  108 1   
   112  106  112 1   
   113  107  109 1   
   114  107  113 1   
   115  107  114 1   
   116  108  115 1   
   117  108  116 1   
   118  108  117 1   
   119  109  118 1   
   120  109  119 1   
   121  109  120 1   
   122  121  122 1   
   123  121  127 1   
   124  122  123 1   
   125  122  125 1   
   126  122  128 1   
   127  123  124 2   
   128  123  132 1   
   129  125  126 1   
   130  125  129 1   
   131  125  130 1   
   132  126  131 1   
   133  132  133 1   
   134  132  137 1   
   135  133  134 1   
   136  133  136 1   
   137  133  138 1   
   138  134  135 2   
   139  134  142 1   
   140  136  139 1   
   141  136  140 1   
   142  136  141 1   
   143  142  143 1   
   144  142  147 1   
   145  143  144 1   
   146  143  146 1   
   147  143  148 1   
   148  144  145 2   
   149  144  152 1   
   150  146  149 1   
   151  146  150 1   
   152  146  151 1   
   153  152  153 1   
   154  152  161 1   
   155  153  154 1   
   156  153  156 1   
   157  153  162 1   
   158  154  155 2   
   159  154  167 1   
   160  156  157 1   
   161  156  163 1   
   162  156  164 1   
   163  157  158 1   
   164  157  165 1   
   165  157  166 1   
   166  158  159 1   
   167  158  160 1   
   168  167  168 1   
   169  167  172 1   
   170  168  169 1   
   171  168  170 1   
   172  168  171 1   
   173  174  175 1   
   174  174  176 1   
   175  177  178 1   
   176  177  179 1   
   177  180  181 1   
   178  180  182 1   
@<TRIPOS>SUBSTRUCTURE
     1 MOL         1 TEMP              0 ****  ****    0 ROOT
