@<TRIPOS>MOLECULE
MOL
  179   176     1     0     0
SMALL
resp


@<TRIPOS>ATOM
      1 C1          2.0750   -5.1500    6.0880 c3        1 MOL     -0.364320
      2 C2          1.8410   -4.5600    4.6890 c         1 MOL      0.730498
      3 O1          0.7970   -4.8780    4.1150 o         1 MOL     -0.627188
      4 H1          3.1440   -5.2860    6.2500 hc        1 MOL      0.098924
      5 H2          1.6780   -4.4680    6.8410 hc        1 MOL      0.098924
      6 H3          1.5690   -6.1120    6.1670 hc        1 MOL      0.098924
      7 N1          2.7690   -3.8000    4.1650 n         1 MOL     -0.554548
      8 C3          2.7190   -3.2960    2.8000 c3        1 MOL      0.050421
      9 C4          3.0230   -4.3540    1.6850 c         1 MOL      0.664173
     10 O2          4.1190   -4.8720    1.6870 o         1 MOL     -0.555505
     11 C5          3.6340   -1.9640    2.7450 c3        1 MOL     -0.138271
     12 C6          3.4520   -1.2610    1.3870 c         1 MOL      0.677957
     13 O3          3.9050   -0.1160    1.2090 o         1 MOL     -0.765438
     14 O4          3.1200   -1.8540    0.3960 o         1 MOL     -0.765438
     15 H4          3.4890   -3.5050    4.8000 hn        1 MOL      0.310590
     16 H5          1.7230   -2.9240    2.5800 h1        1 MOL     -0.022016
     17 H6          4.7000   -2.1830    2.8090 hc        1 MOL      0.072394
     18 H7          3.3700   -1.2640    3.5410 hc        1 MOL      0.072394
     19 N2          2.0410   -4.6310    0.7740 n         1 MOL     -0.397197
     20 C7          2.1260   -5.7150   -0.2870 c3        1 MOL     -0.043932
     21 C8          3.2550   -5.5160   -1.2710 c         1 MOL      0.519191
     22 O5          3.5560   -6.4170   -2.0350 o         1 MOL     -0.565800
     23 C9          0.7500   -5.7680   -0.9700 c3        1 MOL     -0.096225
     24 C10         0.2520   -4.4410   -1.6050 c3        1 MOL      0.303447
     25 C11        -0.9700   -4.7420   -2.4330 c3        1 MOL     -0.278113
     26 C12        -1.4380   -3.4230   -3.0650 c3        1 MOL      0.176261
     27 N3         -2.7160   -3.6320   -3.8110 n4        1 MOL     -0.413357
     28 H8          1.1800   -4.1000    0.7580 hn        1 MOL      0.184884
     29 H9          2.4330   -6.6470    0.1820 h1        1 MOL      0.121400
     30 H10         0.0450   -6.0900   -0.2010 hc        1 MOL      0.032274
     31 H11         0.7300   -6.5170   -1.7700 hc        1 MOL      0.032274
     32 H12         1.0950   -4.0290   -2.1590 hc        1 MOL     -0.025365
     33 H13        -0.0730   -3.7420   -0.8290 hc        1 MOL     -0.025365
     34 H14        -1.7520   -5.1740   -1.8020 hc        1 MOL      0.074929
     35 H15        -0.7030   -5.3580   -3.2880 hc        1 MOL      0.074929
     36 H16        -0.6440   -3.0450   -3.7100 hx        1 MOL      0.037331
     37 H17        -1.5610   -2.6910   -2.2710 hx        1 MOL      0.037331
     38 H18        -3.3990   -3.8440   -3.1010 hn        1 MOL      0.296737
     39 H19        -3.0980   -2.8160   -4.2720 hn        1 MOL      0.296737
     40 H20        -2.6070   -4.3950   -4.4690 hn        1 MOL      0.296737
     41 N4          3.8750   -4.3460   -1.2790 n         1 MOL     -0.269759
     42 C13         4.9980   -4.0140   -2.1730 c3        1 MOL      0.151610
     43 C14         6.2640   -3.4810   -1.3660 c         1 MOL      0.330376
     44 O6          7.4160   -3.8420   -1.6040 o         1 MOL     -0.518001
     45 C15         4.5120   -3.0460   -3.2360 c3        1 MOL     -0.190903
     46 C16         3.8830   -1.7330   -2.7370 c         1 MOL      0.718561
     47 O7          2.6520   -1.6060   -2.7370 o         1 MOL     -0.771685
     48 O8          4.5800   -0.8240   -2.2430 o         1 MOL     -0.771685
     49 H21         3.5200   -3.5670   -0.7580 hn        1 MOL      0.189257
     50 H22         5.3850   -4.8710   -2.7120 h1        1 MOL      0.071049
     51 H23         3.7190   -3.4900   -3.8520 hc        1 MOL      0.052703
     52 H24         5.3850   -2.9110   -3.8770 hc        1 MOL      0.052703
     53 N5          6.0500   -2.6830   -0.3240 n         1 MOL      0.011532
     54 C17         7.0950   -2.2160    0.5470 c3        1 MOL     -0.230133
     55 C18         7.3550   -0.6990    0.5220 c         1 MOL      0.573061
     56 O9          8.1310   -0.2010    1.3190 o         1 MOL     -0.557458
     57 H25         5.0860   -2.4340   -0.1210 hn        1 MOL      0.062957
     58 H26         7.9920   -2.7850    0.3040 h1        1 MOL      0.125809
     59 H27         6.8590   -2.4950    1.5670 h1        1 MOL      0.125809
     60 N6          6.6290    0.1070   -0.2980 n         1 MOL     -0.190818
     61 C19         6.8870    1.5110   -0.6090 c3        1 MOL      0.103199
     62 C20         5.7250    2.4760   -0.5750 c         1 MOL      0.467051
     63 O10         4.5650    2.0610   -0.7000 o         1 MOL     -0.379599
     64 C21         7.7150    1.6540   -1.9060 c3        1 MOL     -0.299413
     65 C22         8.9280    0.7750   -2.0550 c         1 MOL      0.683094
     66 N7          8.9730   -0.2180   -2.9260 n         1 MOL     -0.816304
     67 O11         9.9070    0.9540   -1.4040 o         1 MOL     -0.517562
     68 H28         5.9420   -0.3790   -0.8580 hn        1 MOL      0.148217
     69 H29         7.5660    1.8260    0.1730 h1        1 MOL      0.033351
     70 H30         8.0650    2.6860   -1.9430 hc        1 MOL      0.049468
     71 H31         7.0090    1.6120   -2.7280 hc        1 MOL      0.049468
     72 H32         8.2220   -0.3030   -3.5890 hn        1 MOL      0.376008
     73 H33         9.8140   -0.7710   -3.0460 hn        1 MOL      0.376008
     74 N8          6.0150    3.7690   -0.3970 n         1 MOL     -0.375773
     75 C23         5.1080    5.0080   -0.5610 c3        1 MOL     -0.260531
     76 C24         3.9510    4.8950    0.4120 c         1 MOL      0.688437
     77 O12         4.1070    4.5280    1.6020 o         1 MOL     -0.517574
     78 H34         6.9290    4.1480   -0.1500 hn        1 MOL      0.332589
     79 H35         4.6810    5.0390   -1.5620 h1        1 MOL      0.128162
     80 H36         5.7010    5.8840   -0.3220 h1        1 MOL      0.128162
     81 N9          2.7170    5.1250   -0.1360 n         1 MOL     -0.675531
     82 C25         1.5020    4.8780    0.6950 c3        1 MOL      0.324642
     83 C26         1.1300    3.3630    0.8400 c         1 MOL      0.600790
     84 O13         1.8000    2.5810    0.2070 o         1 MOL     -0.567683
     85 C27         0.3680    5.6340    0.0200 c3        1 MOL     -0.269634
     86 C28         0.5020    7.1280   -0.0510 ca        1 MOL      0.171626
     87 C29         0.9460    7.7340   -1.2290 ca        1 MOL     -0.222394
     88 C30         0.2920    7.8870    1.0850 ca        1 MOL     -0.222394
     89 C31         1.0320    9.1190   -1.3280 ca        1 MOL     -0.167313
     90 C32         0.4760    9.2530    1.0270 ca        1 MOL     -0.167313
     91 C33         0.8610    9.9390   -0.1890 ca        1 MOL      0.213764
     92 O14         1.0320   11.3190   -0.1930 oh        1 MOL     -0.420416
     93 H37         2.6130    5.4290   -1.0940 hn        1 MOL      0.308622
     94 H38         1.8040    5.2410    1.6770 h1        1 MOL      0.044951
     95 H39        -0.5840    5.4440    0.5170 hc        1 MOL      0.074091
     96 H40         0.2680    5.3650   -1.0310 hc        1 MOL      0.074091
     97 H41         1.2340    7.2250   -2.1340 ha        1 MOL      0.143311
     98 H42         0.0660    7.4800    2.0590 ha        1 MOL      0.143311
     99 H43         1.2130    9.5130   -2.3230 ha        1 MOL      0.133001
    100 H44         0.5690    9.8540    1.9200 ha        1 MOL      0.133001
    101 H45         1.4500   11.5520   -1.0210 ho        1 MOL      0.343410
    102 N10         0.2530    3.0000    1.8450 n         1 MOL     -0.793271
    103 C34         0.0830    1.5870    2.4180 c3        1 MOL      0.109638
    104 C35        -0.2310    0.4570    1.3800 c         1 MOL      0.659480
    105 O15         0.5250    0.0930    0.5340 o         1 MOL     -0.436673
    106 C36         1.1500    1.0730    3.3960 c3        1 MOL      0.510124
    107 C37         0.5200    0.0470    4.3810 c3        1 MOL     -0.093427
    108 C38         1.9200    2.1330    4.1560 c3        1 MOL     -0.306573
    109 C39        -0.4990    0.6000    5.3900 c3        1 MOL     -0.215477
    110 H46        -0.2130    3.6780    2.4260 hn        1 MOL      0.365200
    111 H47        -0.8390    1.7320    2.9760 h1        1 MOL      0.034214
    112 H48         1.8390    0.4830    2.7900 hc        1 MOL     -0.128945
    113 H49         1.3020   -0.3700    5.0180 hc        1 MOL      0.037593
    114 H50         0.2150   -0.8050    3.7830 hc        1 MOL      0.037593
    115 H51         1.2010    2.7950    4.6310 hc        1 MOL      0.068171
    116 H52         2.5500    1.5890    4.8600 hc        1 MOL      0.068171
    117 H53         2.5600    2.6460    3.4330 hc        1 MOL      0.068171
    118 H54        -1.1310   -0.2400    5.6720 hc        1 MOL      0.049369
    119 H55         0.0080    1.0880    6.2180 hc        1 MOL      0.049369
    120 H56        -1.2260    1.2880    4.9670 hc        1 MOL      0.049369
    121 N11        -1.4090   -0.1480    1.4800 n         1 MOL     -0.779124
    122 C40        -1.7730   -1.2080    0.4440 c3        1 MOL      0.391866
    123 C41        -3.1230   -1.0320   -0.3160 c         1 MOL      0.453710
    124 O16        -3.3760   -1.6500   -1.3120 o         1 MOL     -0.488692
    125 C42        -1.8530   -2.4620    1.2670 c3        1 MOL     -0.013848
    126 O17        -0.6260   -2.8900    1.8510 oh        1 MOL     -0.461511
    127 H57        -2.0580    0.0550    2.2320 hn        1 MOL      0.336313
    128 H58        -0.9540   -1.3920   -0.2560 h1        1 MOL      0.013961
    129 H59        -2.1840   -3.2190    0.5660 h1        1 MOL      0.035136
    130 H60        -2.7020   -2.4150    1.9530 h1        1 MOL      0.035136
    131 H61        -0.7650   -3.6330    2.4350 ho        1 MOL      0.403519
    132 N12        -3.8990   -0.0540    0.1580 n         1 MOL     -0.463474
    133 C43        -5.3270   -0.0280   -0.1210 c3        1 MOL      0.000562
    134 C44        -5.6810    0.6110   -1.4400 c         1 MOL      0.656346
    135 O18        -4.9910    1.4780   -1.8940 o         1 MOL     -0.563032
    136 C45        -6.0140    0.5820    1.1120 c3        1 MOL     -0.196940
    137 H62        -3.6570    0.5050    0.9670 hn        1 MOL      0.295205
    138 H63        -5.7170   -1.0460   -0.1490 h1        1 MOL      0.086730
    139 H64        -7.0920    0.4250    1.1890 hc        1 MOL      0.075884
    140 H65        -5.6240    0.2040    2.0590 hc        1 MOL      0.075884
    141 H66        -5.6930    1.6190    1.1780 hc        1 MOL      0.075884
    142 N13        -6.7400    0.2380   -2.1060 n         1 MOL     -0.637224
    143 C46        -7.8120   -0.6820   -1.6710 c3        1 MOL      0.256020
    144 C47        -9.1870   -0.2250   -2.2690 c         1 MOL      0.442239
    145 O19        -9.3000    0.3290   -3.3660 o         1 MOL     -0.527147
    146 C48        -7.4060   -2.1370   -2.1390 c3        1 MOL     -0.215214
    147 H67        -6.8810    0.5750   -3.0490 hn        1 MOL      0.338226
    148 H68        -7.8180   -0.7220   -0.5890 h1        1 MOL      0.015120
    149 H69        -6.7110   -2.5990   -1.4330 hc        1 MOL      0.059207
    150 H70        -8.2530   -2.8270   -2.1930 hc        1 MOL      0.059207
    151 H71        -6.9050   -2.2230   -3.0990 hc        1 MOL      0.059207
    152 N14       -10.2820   -0.4830   -1.5490 n         1 MOL     -0.370622
    153 C49       -10.3030   -0.8950   -0.1680 c3        1 MOL     -0.151267
    154 C50        -9.9600    0.1890    0.8720 c         1 MOL      0.601543
    155 O20        -9.7250   -0.1280    2.0250 o         1 MOL     -0.547779
    156 C51       -11.7740   -1.3000    0.1160 c3        1 MOL     -0.140381
    157 C52       -12.7350   -0.1810   -0.0380 c3        1 MOL     -0.228107
    158 C53       -14.1880   -0.6770    0.0950 c         1 MOL      0.678644
    159 O21       -14.5990   -0.8490    1.2670 o         1 MOL     -0.658267
    160 O22       -15.0300   -0.6620   -0.8680 o         1 MOL     -0.658267
    161 H72       -11.1600   -0.2620   -2.0050 hn        1 MOL      0.319746
    162 H73        -9.6470   -1.7510    0.0280 h1        1 MOL      0.080687
    163 H74       -11.8100   -1.6220    1.1630 hc        1 MOL      0.091823
    164 H75       -12.1210   -2.1620   -0.4500 hc        1 MOL      0.091823
    165 H76       -12.6790    0.3670   -0.9860 hc        1 MOL      0.053759
    166 H77       -12.5190    0.5200    0.7770 hc        1 MOL      0.053759
    167 N15        -9.7420    1.3760    0.4080 n         1 MOL     -0.275270
    168 C54        -9.3860    2.5320    1.1770 c3        1 MOL     -0.215410
    169 H78       -10.1990    2.7780    1.8610 h1        1 MOL      0.105901
    170 H79        -8.4810    2.3250    1.7490 h1        1 MOL      0.105901
    171 H80        -9.2090    3.3740    0.5070 h1        1 MOL      0.105901
    172 H81        -9.8430    1.4670   -0.5900 hn        1 MOL      0.249332
    173 Ca1         2.5220    0.4330   -1.0530 Ca        1 MOL      1.706962
    174 O23         2.8390    2.0540   -3.0910 oh        1 MOL     -0.855909
    175 H82         2.3250    1.9750   -3.8850 ho        1 MOL      0.420300
    176 H83         3.7130    2.3320   -3.3850 ho        1 MOL      0.420300
    177 O24         0.1780    0.3200   -2.2250 oh        1 MOL     -0.855909
    178 H84        -0.5840    0.8990   -2.3380 ho        1 MOL      0.420300
    179 H85         0.2860   -0.1020   -3.0780 ho        1 MOL      0.420300
@<TRIPOS>BOND
     1    1    2 1   
     2    1    4 1   
     3    1    5 1   
     4    1    6 1   
     5    2    3 2   
     6    2    7 1   
     7    7    8 1   
     8    7   15 1   
     9    8    9 1   
    10    8   11 1   
    11    8   16 1   
    12    9   10 2   
    13    9   19 1   
    14   11   12 1   
    15   11   17 1   
    16   11   18 1   
    17   12   13 1   
    18   12   14 1   
    19   19   20 1   
    20   19   28 1   
    21   20   21 1   
    22   20   23 1   
    23   20   29 1   
    24   21   22 2   
    25   21   41 1   
    26   23   24 1   
    27   23   30 1   
    28   23   31 1   
    29   24   25 1   
    30   24   32 1   
    31   24   33 1   
    32   25   26 1   
    33   25   34 1   
    34   25   35 1   
    35   26   27 1   
    36   26   36 1   
    37   26   37 1   
    38   27   38 1   
    39   27   39 1   
    40   27   40 1   
    41   41   42 1   
    42   41   49 1   
    43   42   43 1   
    44   42   45 1   
    45   42   50 1   
    46   43   44 2   
    47   43   53 1   
    48   45   46 1   
    49   45   51 1   
    50   45   52 1   
    51   46   47 1   
    52   46   48 1   
    53   53   54 1   
    54   53   57 1   
    55   54   55 1   
    56   54   58 1   
    57   54   59 1   
    58   55   56 2   
    59   55   60 1   
    60   60   61 1   
    61   60   68 1   
    62   61   62 1   
    63   61   64 1   
    64   61   69 1   
    65   62   63 2   
    66   62   74 1   
    67   64   65 1   
    68   64   70 1   
    69   64   71 1   
    70   65   66 1   
    71   65   67 2   
    72   66   72 1   
    73   66   73 1   
    74   74   75 1   
    75   74   78 1   
    76   75   76 1   
    77   75   79 1   
    78   75   80 1   
    79   76   77 2   
    80   76   81 1   
    81   81   82 1   
    82   81   93 1   
    83   82   83 1   
    84   82   85 1   
    85   82   94 1   
    86   83   84 2   
    87   83  102 1   
    88   85   86 1   
    89   85   95 1   
    90   85   96 1   
    91   86   87 ar  
    92   86   88 ar  
    93   87   89 ar  
    94   87   97 1   
    95   88   90 ar  
    96   88   98 1   
    97   89   91 ar  
    98   89   99 1   
    99   90   91 ar  
   100   90  100 1   
   101   91   92 1   
   102   92  101 1   
   103  102  103 1   
   104  102  110 1   
   105  103  104 1   
   106  103  106 1   
   107  103  111 1   
   108  104  105 2   
   109  104  121 1   
   110  106  107 1   
   111  106  108 1   
   112  106  112 1   
   113  107  109 1   
   114  107  113 1   
   115  107  114 1   
   116  108  115 1   
   117  108  116 1   
   118  108  117 1   
   119  109  118 1   
   120  109  119 1   
   121  109  120 1   
   122  121  122 1   
   123  121  127 1   
   124  122  123 1   
   125  122  125 1   
   126  122  128 1   
   127  123  124 2   
   128  123  132 1   
   129  125  126 1   
   130  125  129 1   
   131  125  130 1   
   132  126  131 1   
   133  132  133 1   
   134  132  137 1   
   135  133  134 1   
   136  133  136 1   
   137  133  138 1   
   138  134  135 2   
   139  134  142 1   
   140  136  139 1   
   141  136  140 1   
   142  136  141 1   
   143  142  143 1   
   144  142  147 1   
   145  143  144 1   
   146  143  146 1   
   147  143  148 1   
   148  144  145 2   
   149  144  152 1   
   150  146  149 1   
   151  146  150 1   
   152  146  151 1   
   153  152  153 1   
   154  152  161 1   
   155  153  154 1   
   156  153  156 1   
   157  153  162 1   
   158  154  155 2   
   159  154  167 1   
   160  156  157 1   
   161  156  163 1   
   162  156  164 1   
   163  157  158 1   
   164  157  165 1   
   165  157  166 1   
   166  158  159 1   
   167  158  160 1   
   168  167  168 1   
   169  167  172 1   
   170  168  169 1   
   171  168  170 1   
   172  168  171 1   
   173  174  175 1   
   174  174  176 1   
   175  177  178 1   
   176  177  179 1   
@<TRIPOS>SUBSTRUCTURE
     1 MOL         1 TEMP              0 ****  ****    0 ROOT
