@<TRIPOS>MOLECULE
MOL
  192   187     1     0     0
SMALL
resp


@<TRIPOS>ATOM
      1 C1        -11.9010    5.3130    2.7260 c3        1 MOL     -0.219394
      2 C2        -11.9110    3.9570    1.9550 c         1 MOL      0.676812
      3 O1        -12.8970    3.2600    1.8660 o         1 MOL     -0.574281
      4 H1        -11.3840    6.0650    2.1300 hc        1 MOL      0.056997
      5 H2        -12.9260    5.6360    2.9080 hc        1 MOL      0.056997
      6 H3        -11.3850    5.1870    3.6770 hc        1 MOL      0.056997
      7 N1        -10.7780    3.4810    1.4750 n         1 MOL     -0.307425
      8 C3        -10.7040    2.2520    0.6650 c3        1 MOL     -0.411361
      9 C4         -9.2880    1.7260    0.6300 c         1 MOL      0.645249
     10 O2         -8.2900    2.4410    0.6480 o         1 MOL     -0.568852
     11 C5        -11.2080    2.6050   -0.7620 c3        1 MOL     -0.088309
     12 C6        -10.7770    3.9570   -1.4370 c         1 MOL      0.698027
     13 O3         -9.6830    4.4760   -1.2160 o         1 MOL     -0.702251
     14 O4        -11.6490    4.5700   -2.1180 o         1 MOL     -0.702251
     15 H4         -9.9180    4.0030    1.5950 hn        1 MOL      0.143253
     16 H5        -11.2810    1.4590    1.1270 h1        1 MOL      0.164827
     17 H6        -12.2920    2.6870   -0.6890 hc        1 MOL      0.083862
     18 H7        -11.0740    1.8120   -1.4890 hc        1 MOL      0.083862
     19 N2         -9.1240    0.4230    0.6550 n         1 MOL     -0.369529
     20 C7         -7.8540   -0.2500    1.0410 c3        1 MOL      0.085218
     21 C8         -6.9680   -0.5410   -0.1020 c         1 MOL      0.601216
     22 O5         -7.1820   -1.4970   -0.8300 o         1 MOL     -0.515702
     23 C9         -8.2490   -1.4520    1.8970 c3        1 MOL     -0.209436
     24 C10        -6.9810   -1.7960    2.8070 c3        1 MOL     -0.048087
     25 C11        -7.3040   -2.7990    3.8080 c3        1 MOL      0.094075
     26 C12        -6.3310   -2.8920    4.9660 c3        1 MOL     -0.006876
     27 N3         -6.8540   -3.6760    6.1370 n4        1 MOL     -0.071673
     28 H8         -9.8870   -0.2400    0.5310 hn        1 MOL      0.289521
     29 H9         -7.3020    0.4270    1.6930 h1        1 MOL      0.045290
     30 H10        -8.6000   -2.2210    1.2040 hc        1 MOL      0.074762
     31 H11        -9.0500   -1.1280    2.5550 hc        1 MOL      0.074762
     32 H12        -6.5960   -0.9400    3.3480 hc        1 MOL      0.048330
     33 H13        -6.2150   -2.2130    2.1400 hc        1 MOL      0.048330
     34 H14        -7.4320   -3.7660    3.3210 hc        1 MOL      0.006501
     35 H15        -8.1990   -2.4980    4.3490 hc        1 MOL      0.006501
     36 H16        -6.2350   -1.8570    5.2920 hx        1 MOL      0.047012
     37 H17        -5.4280   -3.3450    4.5620 hx        1 MOL      0.047012
     38 H18        -6.1620   -4.3930    6.3090 hn        1 MOL      0.216076
     39 H19        -6.9420   -3.1840    7.0120 hn        1 MOL      0.216076
     40 H20        -7.7410   -4.1190    5.9680 hn        1 MOL      0.216076
     41 N4         -5.9820    0.3190   -0.2960 n         1 MOL     -0.713106
     42 C13        -5.1240    0.0820   -1.4860 c3        1 MOL      0.404399
     43 C14        -3.5900    0.3490   -1.2270 c         1 MOL      0.373174
     44 O6         -3.2510    1.3220   -0.5120 o         1 MOL     -0.590691
     45 C15        -5.5730    0.8750   -2.6900 c3        1 MOL     -0.235963
     46 C16        -6.0750    2.2600   -2.4190 c         1 MOL      0.825483
     47 O7         -7.2930    2.5000   -2.3620 o         1 MOL     -0.769202
     48 O8         -5.2590    3.1670   -2.2410 o         1 MOL     -0.769202
     49 H21        -5.7860    1.1000    0.3030 hn        1 MOL      0.274400
     50 H22        -5.2640   -0.9580   -1.7530 h1        1 MOL      0.056215
     51 H23        -6.3350    0.2760   -3.1910 hc        1 MOL      0.045891
     52 H24        -4.6800    0.9160   -3.3130 hc        1 MOL      0.045891
     53 N5         -2.6460   -0.3410   -1.8190 n         1 MOL     -0.163468
     54 C17        -2.7620   -1.3520   -2.8200 c3        1 MOL     -0.199401
     55 C18        -3.3090   -2.6660   -2.3200 c         1 MOL      0.300587
     56 O9         -3.5920   -2.7940   -1.1190 o         1 MOL     -0.505509
     57 H25        -1.6900   -0.0070   -1.7240 hn        1 MOL      0.255771
     58 H26        -1.7540   -1.5080   -3.1890 h1        1 MOL      0.108125
     59 H27        -3.3150   -0.9390   -3.6670 h1        1 MOL      0.108125
     60 N6         -3.3400   -3.6440   -3.1840 n         1 MOL     -0.101869
     61 C19        -3.7560   -4.9990   -2.7990 c3        1 MOL     -0.144979
     62 C20        -2.7950   -5.7860   -1.9130 c         1 MOL      0.545576
     63 O10        -3.1750   -6.5490   -1.0570 o         1 MOL     -0.529753
     64 C21        -4.0390   -5.8310   -4.0830 c3        1 MOL     -0.266698
     65 C22        -2.8850   -6.0000   -5.0890 c         1 MOL      0.697287
     66 O11        -2.9110   -6.8600   -6.0010 o         1 MOL     -0.655881
     67 O12        -1.8610   -5.2300   -5.0370 o         1 MOL     -0.655881
     68 H28        -3.0890   -3.4880   -4.1470 hn        1 MOL      0.196563
     69 H29        -4.7290   -4.9280   -2.3030 h1        1 MOL      0.114371
     70 H30        -4.7890   -5.2940   -4.6690 hc        1 MOL      0.089454
     71 H31        -4.4180   -6.7900   -3.7420 hc        1 MOL      0.089454
     72 N7         -1.4510   -5.5710   -2.0490 n         1 MOL     -0.182567
     73 C23        -0.4110   -6.0600   -1.1370 c3        1 MOL     -0.394627
     74 C24        -0.3440   -5.2840    0.1810 c         1 MOL      0.607702
     75 O13         0.2450   -5.7230    1.1550 o         1 MOL     -0.575713
     76 H32        -1.2090   -4.8900   -2.7540 hn        1 MOL      0.166048
     77 H33         0.5160   -5.8050   -1.6360 h1        1 MOL      0.182348
     78 H34        -0.5140   -7.1330   -0.9860 h1        1 MOL      0.182348
     79 N8         -0.8220   -4.0070    0.2320 n         1 MOL     -0.403583
     80 C25        -0.7230   -3.0790    1.3410 c3        1 MOL      0.202830
     81 C26        -0.2050   -1.7370    0.8220 c         1 MOL      0.090170
     82 O14        -0.2910   -1.4710   -0.3720 o         1 MOL     -0.408456
     83 C27        -2.1480   -2.8530    1.8500 c3        1 MOL      0.398424
     84 C28        -2.9640   -4.1540    2.2830 c3        1 MOL     -0.515847
     85 O15        -2.0460   -2.1860    3.0630 oh        1 MOL     -0.688293
     86 H35        -1.3780   -3.7540   -0.5730 hn        1 MOL      0.243177
     87 H36        -0.1500   -3.5490    2.1530 h1        1 MOL      0.063812
     88 H37        -2.7000   -2.3150    1.0690 h1        1 MOL     -0.017414
     89 H38        -2.4700   -1.3380    2.9470 ho        1 MOL      0.380348
     90 H39        -3.9790   -3.8980    2.5890 hc        1 MOL      0.147339
     91 H40        -3.2090   -4.7720    1.4260 hc        1 MOL      0.147339
     92 H41        -2.4440   -4.7460    3.0460 hc        1 MOL      0.147339
     93 N9          0.4620   -0.9990    1.6560 n         1 MOL      0.116439
     94 C29         1.2290    0.2660    1.3810 c3        1 MOL     -0.056471
     95 C30         2.5540   -0.0610    0.6640 c         1 MOL      0.539389
     96 O16         3.0750    0.6220   -0.2310 o         1 MOL     -0.509799
     97 C31         1.3680    1.1620    2.6500 c3        1 MOL     -0.018458
     98 C32        -0.0290    1.5490    3.2740 c3        1 MOL     -0.084241
     99 C33         2.1320    2.4560    2.1930 c3        1 MOL     -0.227393
    100 C34        -0.9050    2.4430    2.3870 c3        1 MOL      0.026464
    101 H42         0.5100   -1.4210    2.5700 hn        1 MOL      0.129112
    102 H43         0.7950    0.7660    0.5180 h1        1 MOL      0.073870
    103 H44         1.8670    0.5590    3.4070 hc        1 MOL      0.023254
    104 H45         0.1000    2.1320    4.1790 hc        1 MOL      0.019779
    105 H46        -0.6390    0.6640    3.4450 hc        1 MOL      0.019779
    106 H47         3.0860    2.1310    1.7800 hc        1 MOL      0.079688
    107 H48         1.6570    3.1010    1.4530 hc        1 MOL      0.079688
    108 H49         2.3710    3.0320    3.0830 hc        1 MOL      0.079688
    109 H50        -1.8390    2.6020    2.9240 hc        1 MOL     -0.004451
    110 H51        -0.4540    3.4230    2.2230 hc        1 MOL     -0.004451
    111 H52        -1.1720    1.8220    1.5290 hc        1 MOL     -0.004451
    112 N10         3.2090   -1.1720    1.0270 n         1 MOL     -0.369551
    113 C35         4.3240   -1.7260    0.2790 c3        1 MOL     -0.169194
    114 C36         5.3770   -2.3710    1.1880 c         1 MOL      0.599200
    115 O17         5.1580   -3.1580    2.0540 o         1 MOL     -0.523693
    116 C37         3.8040   -2.7350   -0.7070 c3        1 MOL      0.373440
    117 C38         2.7110   -3.6110   -0.2160 c3        1 MOL     -0.211744
    118 O18         3.3430   -2.2310   -1.9320 oh        1 MOL     -0.605358
    119 H53         2.7740   -1.6920    1.7750 hn        1 MOL      0.210938
    120 H54         4.7890   -0.9990   -0.3950 h1        1 MOL      0.169737
    121 H55         4.6190   -3.3660   -1.0420 h1        1 MOL     -0.039123
    122 H56         3.1040   -2.9920   -2.4750 ho        1 MOL      0.396842
    123 H57         2.5930   -4.4090   -0.9520 hc        1 MOL      0.050280
    124 H58         2.8930   -4.1800    0.6950 hc        1 MOL      0.050280
    125 H59         1.8090   -3.0150   -0.0800 hc        1 MOL      0.050280
    126 N11         6.6650   -2.0720    1.0470 n         1 MOL     -0.453898
    127 C39         7.7500   -2.4970    1.9620 c3        1 MOL      0.027280
    128 C40         8.6470   -1.2870    2.1780 c         1 MOL      0.645806
    129 O19         8.8250   -0.8650    3.3160 o         1 MOL     -0.565260
    130 C41         8.5190   -3.7550    1.3900 c3        1 MOL      0.256152
    131 C42         9.7810   -4.0460    2.1310 c3        1 MOL     -0.369616
    132 O20         9.0190   -3.6500    0.0220 oh        1 MOL     -0.657879
    133 H60         6.8650   -1.3580    0.3550 hn        1 MOL      0.233504
    134 H61         7.4770   -2.7780    2.9810 h1        1 MOL      0.101632
    135 H62         7.8470   -4.6110    1.4000 h1        1 MOL      0.068745
    136 H63         9.4590   -4.4870   -0.1350 ho        1 MOL      0.414729
    137 H64         9.5630   -3.7900    3.1710 hc        1 MOL      0.090846
    138 H65        10.0230   -5.1100    2.0340 hc        1 MOL      0.090846
    139 H66        10.6290   -3.3920    1.9360 hc        1 MOL      0.090846
    140 N12         9.0760   -0.6230    1.1170 n         1 MOL     -0.477227
    141 C43        10.0190    0.5360    1.0780 c3        1 MOL     -0.031883
    142 C44         9.6440    1.6450    0.0810 c         1 MOL      0.590766
    143 O21         9.2100    1.2470   -0.9910 o         1 MOL     -0.509483
    144 C45        11.4480    0.0190    0.8810 c3        1 MOL     -0.115255
    145 C46        11.6870   -0.5540   -0.5050 c3        1 MOL     -0.026999
    146 C47        13.0750   -1.1180   -0.6500 c3        1 MOL      0.007947
    147 C48        14.1780   -0.1560   -0.2650 c3        1 MOL      0.001499
    148 N13        15.4790   -0.7750   -0.5090 n4        1 MOL     -0.232421
    149 H67         8.7670   -0.9470    0.2050 hn        1 MOL      0.321886
    150 H68        10.0630    1.1020    2.0100 h1        1 MOL      0.087643
    151 H69        11.6820   -0.7450    1.6160 hc        1 MOL      0.052310
    152 H70        12.1220    0.8570    1.0340 hc        1 MOL      0.052310
    153 H71        11.6770    0.2350   -1.2560 hc        1 MOL      0.054609
    154 H72        10.9610   -1.3250   -0.7580 hc        1 MOL      0.054609
    155 H73        13.1560   -1.6220   -1.6130 hc        1 MOL      0.021814
    156 H74        13.1250   -1.9870    0.0070 hc        1 MOL      0.021814
    157 H75        14.0200    0.1210    0.7750 hx        1 MOL      0.083532
    158 H76        14.1870    0.7330   -0.8970 hx        1 MOL      0.083532
    159 H77        15.6460   -1.4260    0.2520 hn        1 MOL      0.253735
    160 H78        15.5140   -1.3310   -1.3470 hn        1 MOL      0.253735
    161 H79        16.2240   -0.0990   -0.5650 hn        1 MOL      0.253735
    162 N14         9.8690    2.9480    0.3550 n         1 MOL     -0.641494
    163 C49         9.8790    3.9560   -0.7150 c3        1 MOL      0.532827
    164 C50         8.5500    4.1690   -1.3550 c         1 MOL      0.210144
    165 O22         8.3770    3.9230   -2.5410 o         1 MOL     -0.498048
    166 C51        10.6180    5.2400   -0.3670 c3        1 MOL     -0.480265
    167 C52        10.7350    6.1790   -1.5510 c3        1 MOL     -0.072995
    168 C53        11.8710    7.1940   -1.2340 c         1 MOL      0.687668
    169 O23        12.7920    7.3230   -2.0790 o         1 MOL     -0.648510
    170 O24        11.7930    7.9720   -0.2890 o         1 MOL     -0.648510
    171 H80        10.2870    3.0490    1.2690 hn        1 MOL      0.304542
    172 H81        10.5070    3.5780   -1.5210 h1        1 MOL      0.007324
    173 H82        11.6330    4.9030   -0.1340 hc        1 MOL      0.123427
    174 H83        10.0970    5.7960    0.4210 hc        1 MOL      0.123427
    175 H84         9.7970    6.7010   -1.6970 hc        1 MOL      0.046952
    176 H85        10.9940    5.7240   -2.5050 hc        1 MOL      0.046952
    177 N15         7.5030    4.4900   -0.5990 n         1 MOL     -0.219967
    178 C54         7.4350    4.9220    0.8260 c3        1 MOL     -0.078763
    179 H86         6.7300    4.2880    1.3640 h1        1 MOL      0.060994
    180 H87         8.4210    4.8340    1.2810 h1        1 MOL      0.060994
    181 H88         7.1020    5.9580    0.8770 h1        1 MOL      0.060994
    182 H89         6.6030    4.4570   -1.0450 hn        1 MOL      0.267764
    183 Ca1        -7.0620    4.4020   -0.6300 Ca        1 MOL      1.746764
    184 O25        -4.7270    5.8970   -0.2410 oh        1 MOL     -0.878611
    185 H90        -3.9680    5.3430   -0.3530 ho        1 MOL      0.436301
    186 H91        -4.4320    6.7740   -0.4990 ho        1 MOL      0.436301
    187 O26        -6.8460    5.7700   -2.8440 oh        1 MOL     -0.878611
    188 H92        -6.1150    6.1590   -3.3360 ho        1 MOL      0.436301
    189 H93        -7.6170    5.9260   -3.3890 ho        1 MOL      0.436301
    190 O27        -5.5430    2.9610    0.8480 oh        1 MOL     -0.878611
    191 H94        -4.6530    2.8340    0.4960 ho        1 MOL      0.436301
    192 H95        -5.5130    2.5310    1.7080 ho        1 MOL      0.436301
@<TRIPOS>BOND
     1    1    2 1   
     2    1    4 1   
     3    1    5 1   
     4    1    6 1   
     5    2    3 2   
     6    2    7 1   
     7    7    8 1   
     8    7   15 1   
     9    8    9 1   
    10    8   11 1   
    11    8   16 1   
    12    9   10 2   
    13    9   19 1   
    14   11   12 1   
    15   11   17 1   
    16   11   18 1   
    17   12   13 1   
    18   12   14 1   
    19   19   20 1   
    20   19   28 1   
    21   20   21 1   
    22   20   23 1   
    23   20   29 1   
    24   21   22 2   
    25   21   41 1   
    26   23   24 1   
    27   23   30 1   
    28   23   31 1   
    29   24   25 1   
    30   24   32 1   
    31   24   33 1   
    32   25   26 1   
    33   25   34 1   
    34   25   35 1   
    35   26   27 1   
    36   26   36 1   
    37   26   37 1   
    38   27   38 1   
    39   27   39 1   
    40   27   40 1   
    41   41   42 1   
    42   41   49 1   
    43   42   43 1   
    44   42   45 1   
    45   42   50 1   
    46   43   44 2   
    47   43   53 1   
    48   45   46 1   
    49   45   51 1   
    50   45   52 1   
    51   46   47 1   
    52   46   48 1   
    53   53   54 1   
    54   53   57 1   
    55   54   55 1   
    56   54   58 1   
    57   54   59 1   
    58   55   56 2   
    59   55   60 1   
    60   60   61 1   
    61   60   68 1   
    62   61   62 1   
    63   61   64 1   
    64   61   69 1   
    65   62   63 2   
    66   62   72 1   
    67   64   65 1   
    68   64   70 1   
    69   64   71 1   
    70   65   66 1   
    71   65   67 1   
    72   72   73 1   
    73   72   76 1   
    74   73   74 1   
    75   73   77 1   
    76   73   78 1   
    77   74   75 2   
    78   74   79 1   
    79   79   80 1   
    80   79   86 1   
    81   80   81 1   
    82   80   83 1   
    83   80   87 1   
    84   81   82 2   
    85   81   93 1   
    86   83   84 1   
    87   83   85 1   
    88   83   88 1   
    89   84   90 1   
    90   84   91 1   
    91   84   92 1   
    92   85   89 1   
    93   93   94 1   
    94   93  101 1   
    95   94   95 1   
    96   94   97 1   
    97   94  102 1   
    98   95   96 2   
    99   95  112 1   
   100   97   98 1   
   101   97   99 1   
   102   97  103 1   
   103   98  100 1   
   104   98  104 1   
   105   98  105 1   
   106   99  106 1   
   107   99  107 1   
   108   99  108 1   
   109  100  109 1   
   110  100  110 1   
   111  100  111 1   
   112  112  113 1   
   113  112  119 1   
   114  113  114 1   
   115  113  116 1   
   116  113  120 1   
   117  114  115 2   
   118  114  126 1   
   119  116  117 1   
   120  116  118 1   
   121  116  121 1   
   122  117  123 1   
   123  117  124 1   
   124  117  125 1   
   125  118  122 1   
   126  126  127 1   
   127  126  133 1   
   128  127  128 1   
   129  127  130 1   
   130  127  134 1   
   131  128  129 2   
   132  128  140 1   
   133  130  131 1   
   134  130  132 1   
   135  130  135 1   
   136  131  137 1   
   137  131  138 1   
   138  131  139 1   
   139  132  136 1   
   140  140  141 1   
   141  140  149 1   
   142  141  142 1   
   143  141  144 1   
   144  141  150 1   
   145  142  143 2   
   146  142  162 1   
   147  144  145 1   
   148  144  151 1   
   149  144  152 1   
   150  145  146 1   
   151  145  153 1   
   152  145  154 1   
   153  146  147 1   
   154  146  155 1   
   155  146  156 1   
   156  147  148 1   
   157  147  157 1   
   158  147  158 1   
   159  148  159 1   
   160  148  160 1   
   161  148  161 1   
   162  162  163 1   
   163  162  171 1   
   164  163  164 1   
   165  163  166 1   
   166  163  172 1   
   167  164  165 2   
   168  164  177 1   
   169  166  167 1   
   170  166  173 1   
   171  166  174 1   
   172  167  168 1   
   173  167  175 1   
   174  167  176 1   
   175  168  169 1   
   176  168  170 1   
   177  177  178 1   
   178  177  182 1   
   179  178  179 1   
   180  178  180 1   
   181  178  181 1   
   182  184  185 1   
   183  184  186 1   
   184  187  188 1   
   185  187  189 1   
   186  190  191 1   
   187  190  192 1   
@<TRIPOS>SUBSTRUCTURE
     1 MOL         1 TEMP              0 ****  ****    0 ROOT
