@<TRIPOS>MOLECULE
MOL
  192   187     1     0     0
SMALL
resp


@<TRIPOS>ATOM
      1 C1         -3.6090   -2.5370    2.7240 c3        1 MOL     -0.426800
      2 C2         -2.7060   -3.0210    1.5350 c         1 MOL      0.573270
      3 O1         -1.8380   -2.3060    1.0430 o         1 MOL     -0.484032
      4 H1         -4.0340   -1.5630    2.4830 hc        1 MOL      0.105385
      5 H2         -4.4130   -3.2540    2.8850 hc        1 MOL      0.105385
      6 H3         -3.0060   -2.4560    3.6290 hc        1 MOL      0.105385
      7 N1         -2.8270   -4.1920    1.0170 n         1 MOL     -0.499964
      8 C3         -1.9240   -4.8160    0.0190 c3        1 MOL      0.010369
      9 C4         -0.3980   -4.4980    0.2700 c         1 MOL      0.664966
     10 O2          0.2870   -4.2290   -0.7460 o         1 MOL     -0.506049
     11 C5         -2.4250   -4.6110   -1.3960 c3        1 MOL     -0.300222
     12 C6         -3.9410   -4.7230   -1.4510 c         1 MOL      0.980267
     13 O3         -4.5230   -5.7570   -1.0450 o         1 MOL     -0.829506
     14 O4         -4.6140   -3.8330   -1.9960 o         1 MOL     -0.829506
     15 H4         -3.5000   -4.8230    1.4230 hn        1 MOL      0.249777
     16 H5         -2.0910   -5.8830    0.1000 h1        1 MOL      0.085481
     17 H6         -1.9640   -5.2660   -2.1280 hc        1 MOL      0.086140
     18 H7         -2.1350   -3.5970   -1.6760 hc        1 MOL      0.086140
     19 N2          0.0910   -4.5650    1.5160 n         1 MOL     -0.632675
     20 C7          1.5130   -4.6410    1.7970 c3        1 MOL      0.069109
     21 C8          2.1440   -5.9480    1.4150 c         1 MOL      0.372565
     22 O5          1.4630   -6.9760    1.1950 o         1 MOL     -0.576834
     23 C9          1.8260   -4.1620    3.2240 c3        1 MOL      0.323734
     24 C10         1.8750   -5.2420    4.3070 c3        1 MOL      0.113639
     25 C11         0.9720   -3.0080    3.7520 c3        1 MOL     -0.208017
     26 C12         2.2180   -4.6690    5.6760 c3        1 MOL     -0.323956
     27 H8         -0.5540   -4.7960    2.2660 hn        1 MOL      0.335302
     28 H9          1.9550   -3.8870    1.1550 h1        1 MOL      0.092678
     29 H10         2.8670   -3.8200    3.2330 hc        1 MOL     -0.032100
     30 H11         2.6570   -5.8570    3.8800 hc        1 MOL     -0.052643
     31 H12         0.9910   -5.8770    4.2580 hc        1 MOL     -0.052643
     32 H13         0.0790   -3.3770    4.2720 hc        1 MOL      0.034608
     33 H14         1.5380   -2.3980    4.4480 hc        1 MOL      0.034608
     34 H15         0.6720   -2.2910    2.9860 hc        1 MOL      0.034608
     35 H16         1.4960   -3.9000    5.9830 hc        1 MOL      0.071884
     36 H17         2.2950   -5.3710    6.5170 hc        1 MOL      0.071884
     37 H18         3.1450   -4.0900    5.6790 hc        1 MOL      0.071884
     38 N3          3.4510   -6.0690    1.2550 n         1 MOL     -0.235842
     39 C13         4.4920   -5.0280    1.4200 c3        1 MOL     -0.097285
     40 C14         4.4470   -3.9470    0.3920 c         1 MOL      0.536117
     41 O6          4.9930   -2.8630    0.6380 o         1 MOL     -0.556407
     42 C15         5.8550   -5.7830    1.0760 c3        1 MOL     -0.338517
     43 C16         6.0590   -6.5750   -0.2650 c         1 MOL      0.757582
     44 O7          5.0330   -7.0230   -0.8620 o         1 MOL     -0.707640
     45 O8          7.2360   -6.8600   -0.6010 o         1 MOL     -0.707640
     46 H19         3.7010   -6.9290    0.7980 hn        1 MOL      0.242770
     47 H20         4.5630   -4.6420    2.4420 h1        1 MOL      0.106731
     48 H21         6.0040   -6.4990    1.8770 hc        1 MOL      0.083425
     49 H22         6.5240   -4.9220    1.1160 hc        1 MOL      0.083425
     50 N4          3.8540   -4.1120   -0.7990 n         1 MOL     -0.333594
     51 C17         3.5080   -2.9930   -1.6860 c3        1 MOL     -0.125564
     52 C18         4.7200   -2.5050   -2.5640 c         1 MOL      0.571296
     53 O9          5.7490   -3.1120   -2.6770 o         1 MOL     -0.513878
     54 H23         3.3950   -4.9870   -0.9790 hn        1 MOL      0.291996
     55 H24         3.0210   -2.1910   -1.1300 h1        1 MOL      0.088743
     56 H25         2.6900   -3.3170   -2.3220 h1        1 MOL      0.088743
     57 N5          4.6920   -1.2150   -3.0040 n         1 MOL     -0.625852
     58 C19         5.8860   -0.5720   -3.6740 c3        1 MOL      0.285158
     59 C20         6.8900   -0.1110   -2.5380 c         1 MOL      0.190327
     60 O10         7.8750    0.6790   -2.6850 o         1 MOL     -0.527364
     61 C21         5.4350    0.5310   -4.6090 c3        1 MOL     -0.311658
     62 C22         4.5050    1.5590   -3.9060 c         1 MOL      0.775127
     63 O11         4.8250    1.9680   -2.8140 o         1 MOL     -0.714217
     64 O12         3.3550    1.7260   -4.4140 o         1 MOL     -0.714217
     65 H26         3.8290   -0.7350   -2.8070 hn        1 MOL      0.349353
     66 H27         6.3170   -1.3200   -4.3470 h1        1 MOL      0.076019
     67 H28         4.9010    0.1560   -5.4780 hc        1 MOL      0.042114
     68 H29         6.2940    1.0260   -5.0760 hc        1 MOL      0.042114
     69 N6          6.6200   -0.3910   -1.2610 n         1 MOL      0.128517
     70 C23         7.4720    0.0690   -0.0900 c3        1 MOL     -0.421290
     71 C24         7.4220    1.5540    0.2500 c         1 MOL      0.613381
     72 O13         8.1520    2.0440    1.1200 o         1 MOL     -0.594111
     73 H30         5.8160   -0.9830   -1.1080 hn        1 MOL      0.139950
     74 H31         8.5340   -0.0590   -0.3030 h1        1 MOL      0.157143
     75 H32         7.1800   -0.4810    0.8110 h1        1 MOL      0.157143
     76 N7          6.6010    2.3190   -0.4980 n         1 MOL     -0.201104
     77 C25         6.3630    3.7640   -0.4330 c3        1 MOL      0.025001
     78 C26         5.9820    4.2590    0.9470 c         1 MOL      0.417209
     79 O14         6.2230    5.4430    1.2950 o         1 MOL     -0.519355
     80 C27         7.3670    4.5140   -1.2940 c3        1 MOL      0.166890
     81 C28         7.7290    3.9140   -2.6850 c3        1 MOL     -0.220907
     82 C29         8.5290    4.8030   -3.6900 c         1 MOL      0.664235
     83 N8          9.3130    4.2500   -4.5800 n         1 MOL     -0.785878
     84 O15         8.4950    5.9730   -3.6700 o         1 MOL     -0.580688
     85 H33         6.2800    1.8100   -1.3070 hn        1 MOL      0.066165
     86 H34         5.4550    3.8230   -1.0230 h1        1 MOL      0.098532
     87 H35         8.3120    4.6010   -0.7720 hc        1 MOL     -0.031946
     88 H36         7.0410    5.5470   -1.3810 hc        1 MOL     -0.031946
     89 H37         6.8560    3.5620   -3.2230 hc        1 MOL      0.091583
     90 H38         8.4050    3.0770   -2.4990 hc        1 MOL      0.091583
     91 H39         9.4180    3.2420   -4.6520 hn        1 MOL      0.337851
     92 H40         9.5280    4.8630   -5.3440 hn        1 MOL      0.337851
     93 N9          5.3780    3.3600    1.7380 n         1 MOL     -0.316651
     94 C30         4.6820    3.7290    2.9930 c3        1 MOL     -0.044500
     95 C31         3.1850    3.5120    2.9580 c         1 MOL      0.622378
     96 O16         2.5790    3.9570    3.9510 o         1 MOL     -0.615260
     97 C32         5.2620    3.1850    4.2520 c3        1 MOL      0.161474
     98 C33         5.2110    1.6230    4.2720 c3        1 MOL     -0.251677
     99 C34         6.6920    3.5410    4.4120 c3        1 MOL     -0.251677
    100 H41         5.3590    2.3920    1.4450 hn        1 MOL      0.242957
    101 H42         4.7670    4.8080    3.1360 h1        1 MOL      0.085908
    102 H43         4.7060    3.3950    5.1660 hc        1 MOL      0.011000
    103 H44         4.2370    1.1420    4.3230 hc        1 MOL      0.060584
    104 H45         5.6090    1.1740    3.3570 hc        1 MOL      0.060584
    105 H46         5.7850    1.3130    5.1420 hc        1 MOL      0.060584
    106 H47         7.3080    2.9940    3.6910 hc        1 MOL      0.060584
    107 H48         6.8450    4.6090    4.2670 hc        1 MOL      0.060584
    108 H49         7.0600    3.3690    5.4310 hc        1 MOL      0.060584
    109 N10         2.6040    2.9410    1.9200 n         1 MOL     -0.524665
    110 C35         1.1690    2.5490    1.8100 c3        1 MOL      0.348425
    111 C36         0.5260    3.3050    0.6210 c         1 MOL      0.449116
    112 O17         1.2180    3.9530   -0.1800 o         1 MOL     -0.496384
    113 C37         1.0760    0.9920    1.8120 c3        1 MOL      0.025095
    114 C38         1.7610    0.4360    3.1070 c         1 MOL      0.516240
    115 N11         1.3260    0.8460    4.2670 n         1 MOL     -0.764783
    116 O18         2.7070   -0.3010    3.1470 o         1 MOL     -0.546674
    117 H50         3.1700    2.5320    1.1820 hn        1 MOL      0.248371
    118 H51         0.6180    2.9310    2.6770 h1        1 MOL     -0.026458
    119 H52         1.5310    0.5490    0.9310 hc        1 MOL      0.016157
    120 H53         0.0440    0.6610    1.7860 hc        1 MOL      0.016157
    121 H54         0.4830    1.3930    4.2970 hn        1 MOL      0.362004
    122 H55         1.8400    0.5760    5.1000 hn        1 MOL      0.362004
    123 N12        -0.8180    3.2700    0.6070 n         1 MOL     -0.372722
    124 C39        -1.6870    4.0750   -0.2970 c3        1 MOL      0.008738
    125 C40        -3.0470    4.2610    0.2500 c         1 MOL      0.645006
    126 O19        -3.4440    3.7170    1.3190 o         1 MOL     -0.582007
    127 C41        -1.7340    3.4160   -1.7290 c3        1 MOL     -0.371070
    128 C42        -2.6290    2.1840   -1.8370 ca        1 MOL      0.058095
    129 C43        -2.1850    0.8940   -1.3500 ca        1 MOL     -0.105009
    130 C44        -3.8490    2.3430   -2.5420 ca        1 MOL     -0.105009
    131 C45        -3.0140   -0.1670   -1.6680 ca        1 MOL     -0.258647
    132 C46        -4.6270    1.2760   -2.8310 ca        1 MOL     -0.258647
    133 C47        -4.2190   -0.0150   -2.3990 ca        1 MOL      0.312818
    134 O20        -4.8490   -1.1560   -2.7650 oh        1 MOL     -0.542630
    135 H56        -1.3210    2.8440    1.3680 hn        1 MOL      0.208795
    136 H57        -1.1860    5.0430   -0.2740 h1        1 MOL      0.108986
    137 H58        -0.7140    3.1250   -1.9680 hc        1 MOL      0.153689
    138 H59        -1.9800    4.1590   -2.4850 hc        1 MOL      0.153689
    139 H60        -1.2100    0.7770   -0.9160 ha        1 MOL      0.127128
    140 H61        -4.1200    3.3290   -2.9010 ha        1 MOL      0.127128
    141 H62        -2.6550   -1.1690   -1.4920 ha        1 MOL      0.132937
    142 H63        -5.5810    1.3890   -3.3440 ha        1 MOL      0.132937
    143 H64        -4.4880   -1.9250   -2.3050 ho        1 MOL      0.454698
    144 N13        -3.9270    5.0440   -0.4020 n         1 MOL     -0.725715
    145 C48        -5.4270    5.0920   -0.0960 c3        1 MOL      0.247406
    146 C49        -6.1990    4.2570   -1.1560 c         1 MOL      0.680575
    147 O21        -6.3090    4.7550   -2.2680 o         1 MOL     -0.575801
    148 C50        -5.8920    6.5600   -0.1370 c3        1 MOL     -0.092209
    149 C51        -7.2860    6.9570    0.4250 c3        1 MOL     -0.201702
    150 C52        -7.5150    8.4500    0.2820 c         1 MOL      0.654098
    151 O22        -7.8590    9.0200   -0.8170 o         1 MOL     -0.683862
    152 O23        -7.3480    9.1370    1.3220 o         1 MOL     -0.683862
    153 H65        -3.5880    5.6540   -1.1370 hn        1 MOL      0.336675
    154 H66        -5.5210    4.6790    0.9150 h1        1 MOL      0.091645
    155 H67        -5.8740    6.9200   -1.1690 hc        1 MOL      0.047067
    156 H68        -5.1960    7.0620    0.5440 hc        1 MOL      0.047067
    157 H69        -7.2270    6.6540    1.4690 hc        1 MOL      0.042301
    158 H70        -8.0320    6.3590   -0.1000 hc        1 MOL      0.042301
    159 N14        -6.7060    3.0340   -0.9940 n         1 MOL     -0.678971
    160 C53        -6.3990    2.2030    0.2010 c3        1 MOL      0.052127
    161 C54        -6.9140    2.8280    1.4870 c         1 MOL      0.604557
    162 O24        -7.9260    3.5580    1.4880 o         1 MOL     -0.554456
    163 C55        -6.9670    0.7760   -0.0380 c3        1 MOL     -0.033078
    164 C56        -6.7660   -0.2320    1.0840 c3        1 MOL     -0.060830
    165 C57        -6.9620   -1.6430    0.5840 c         1 MOL      0.672373
    166 O25        -8.0830   -2.1820    0.5150 o         1 MOL     -0.742415
    167 O26        -5.9710   -2.4420    0.4880 o         1 MOL     -0.742415
    168 H71        -7.2410    2.6200   -1.7480 hn        1 MOL      0.341948
    169 H72        -5.3100    2.0950    0.2570 h1        1 MOL      0.071758
    170 H73        -6.5310    0.3310   -0.9300 hc        1 MOL      0.038115
    171 H74        -8.0320    0.9700   -0.1660 hc        1 MOL      0.038115
    172 H75        -7.5790    0.0100    1.7660 hc        1 MOL      0.016468
    173 H76        -5.7650   -0.0810    1.5010 hc        1 MOL      0.016468
    174 N15        -6.2110    2.6370    2.6660 n         1 MOL     -0.437155
    175 C58        -6.3960    3.1800    4.0420 c3        1 MOL     -0.077198
    176 H77        -7.2120    3.9040    4.0390 h1        1 MOL      0.074184
    177 H78        -6.6350    2.3660    4.7250 h1        1 MOL      0.074184
    178 H79        -5.4780    3.6700    4.3660 h1        1 MOL      0.074184
    179 H80        -5.3580    2.1130    2.4830 hn        1 MOL      0.288099
    180 Ca1        -6.9350   -4.3250   -0.9170 Ca        1 MOL      1.692234
    181 O27        -7.9720   -6.9050   -1.1500 oh        1 MOL     -0.802493
    182 H81        -7.8950   -7.5830   -0.4730 ho        1 MOL      0.387929
    183 H82        -7.9710   -7.3990   -1.9690 ho        1 MOL      0.387929
    184 O28        -6.8910   -5.5210   -3.4700 oh        1 MOL     -0.802493
    185 O29        -9.6380   -4.4540   -1.7750 oh        1 MOL     -0.802493
    186 H83        -6.2870   -6.2500   -3.5950 ho        1 MOL      0.387929
    187 H84       -10.5570   -4.1840   -1.7200 ho        1 MOL      0.387929
    188 H85        -7.4480   -5.5410   -4.2520 ho        1 MOL      0.387929
    189 H86        -9.5830   -4.9090   -2.6110 ho        1 MOL      0.387929
    190 O30        -7.2950   -2.8130   -3.0170 oh        1 MOL     -0.802493
    191 H87        -7.2580   -1.8530   -3.1420 ho        1 MOL      0.387929
    192 H88        -7.3520   -3.1610   -3.9030 ho        1 MOL      0.387929
@<TRIPOS>BOND
     1    1    2 1   
     2    1    4 1   
     3    1    5 1   
     4    1    6 1   
     5    2    3 2   
     6    2    7 1   
     7    7    8 1   
     8    7   15 1   
     9    8    9 1   
    10    8   11 1   
    11    8   16 1   
    12    9   10 2   
    13    9   19 1   
    14   11   12 1   
    15   11   17 1   
    16   11   18 1   
    17   12   13 1   
    18   12   14 1   
    19   19   20 1   
    20   19   27 1   
    21   20   21 1   
    22   20   23 1   
    23   20   28 1   
    24   21   22 2   
    25   21   38 1   
    26   23   24 1   
    27   23   25 1   
    28   23   29 1   
    29   24   26 1   
    30   24   30 1   
    31   24   31 1   
    32   25   32 1   
    33   25   33 1   
    34   25   34 1   
    35   26   35 1   
    36   26   36 1   
    37   26   37 1   
    38   38   39 1   
    39   38   46 1   
    40   39   40 1   
    41   39   42 1   
    42   39   47 1   
    43   40   41 2   
    44   40   50 1   
    45   42   43 1   
    46   42   48 1   
    47   42   49 1   
    48   43   44 1   
    49   43   45 1   
    50   50   51 1   
    51   50   54 1   
    52   51   52 1   
    53   51   55 1   
    54   51   56 1   
    55   52   53 2   
    56   52   57 1   
    57   57   58 1   
    58   57   65 1   
    59   58   59 1   
    60   58   61 1   
    61   58   66 1   
    62   59   60 2   
    63   59   69 1   
    64   61   62 1   
    65   61   67 1   
    66   61   68 1   
    67   62   63 1   
    68   62   64 1   
    69   69   70 1   
    70   69   73 1   
    71   70   71 1   
    72   70   74 1   
    73   70   75 1   
    74   71   72 2   
    75   71   76 1   
    76   76   77 1   
    77   76   85 1   
    78   77   78 1   
    79   77   80 1   
    80   77   86 1   
    81   78   79 2   
    82   78   93 1   
    83   80   81 1   
    84   80   87 1   
    85   80   88 1   
    86   81   82 1   
    87   81   89 1   
    88   81   90 1   
    89   82   83 1   
    90   82   84 2   
    91   83   91 1   
    92   83   92 1   
    93   93   94 1   
    94   93  100 1   
    95   94   95 1   
    96   94   97 1   
    97   94  101 1   
    98   95   96 2   
    99   95  109 1   
   100   97   98 1   
   101   97   99 1   
   102   97  102 1   
   103   98  103 1   
   104   98  104 1   
   105   98  105 1   
   106   99  106 1   
   107   99  107 1   
   108   99  108 1   
   109  109  110 1   
   110  109  117 1   
   111  110  111 1   
   112  110  113 1   
   113  110  118 1   
   114  111  112 2   
   115  111  123 1   
   116  113  114 1   
   117  113  119 1   
   118  113  120 1   
   119  114  115 1   
   120  114  116 2   
   121  115  121 1   
   122  115  122 1   
   123  123  124 1   
   124  123  135 1   
   125  124  125 1   
   126  124  127 1   
   127  124  136 1   
   128  125  126 2   
   129  125  144 1   
   130  127  128 1   
   131  127  137 1   
   132  127  138 1   
   133  128  129 ar  
   134  128  130 ar  
   135  129  131 ar  
   136  129  139 1   
   137  130  132 ar  
   138  130  140 1   
   139  131  133 ar  
   140  131  141 1   
   141  132  133 ar  
   142  132  142 1   
   143  133  134 1   
   144  134  143 1   
   145  144  145 1   
   146  144  153 1   
   147  145  146 1   
   148  145  148 1   
   149  145  154 1   
   150  146  147 2   
   151  146  159 1   
   152  148  149 1   
   153  148  155 1   
   154  148  156 1   
   155  149  150 1   
   156  149  157 1   
   157  149  158 1   
   158  150  151 1   
   159  150  152 1   
   160  159  160 1   
   161  159  168 1   
   162  160  161 1   
   163  160  163 1   
   164  160  169 1   
   165  161  162 2   
   166  161  174 1   
   167  163  164 1   
   168  163  170 1   
   169  163  171 1   
   170  164  165 1   
   171  164  172 1   
   172  164  173 1   
   173  165  166 1   
   174  165  167 1   
   175  174  175 1   
   176  174  179 1   
   177  175  176 1   
   178  175  177 1   
   179  175  178 1   
   180  181  182 1   
   181  181  183 1   
   182  184  186 1   
   183  184  188 1   
   184  185  187 1   
   185  185  189 1   
   186  190  191 1   
   187  190  192 1   
@<TRIPOS>SUBSTRUCTURE
     1 MOL         1 TEMP              0 ****  ****    0 ROOT
