@<TRIPOS>MOLECULE
MOL
  179   176     1     0     0
SMALL
resp


@<TRIPOS>ATOM
      1 C1         -0.2820   -3.1770    6.3920 c3        1 MOL     -0.261398
      2 C2         -0.1210   -3.1880    4.8820 c         1 MOL      0.756394
      3 O1         -1.1120   -3.2460    4.0940 o         1 MOL     -0.604493
      4 H1          0.6050   -3.6110    6.8550 hc        1 MOL      0.080319
      5 H2         -0.4070   -2.1510    6.7370 hc        1 MOL      0.080319
      6 H3         -1.1580   -3.7630    6.6690 hc        1 MOL      0.080319
      7 N1          1.1450   -3.0400    4.4140 n         1 MOL     -0.653506
      8 C3          1.4110   -2.9410    2.9770 c3        1 MOL      0.081661
      9 C4          1.1280   -4.2910    2.2250 c         1 MOL      0.591955
     10 O2          1.3940   -5.3740    2.7970 o         1 MOL     -0.547596
     11 C5          2.8340   -2.2870    2.7020 c3        1 MOL     -0.255875
     12 C6          2.9700   -1.5820    1.4200 c         1 MOL      0.559937
     13 O3          3.6510   -0.4640    1.3850 o         1 MOL     -0.699677
     14 O4          2.6180   -2.0910    0.4010 o         1 MOL     -0.699677
     15 H4          1.9040   -3.0540    5.0790 hn        1 MOL      0.345545
     16 H5          0.6570   -2.2130    2.6790 h1        1 MOL     -0.048264
     17 H6          3.5350   -3.1070    2.8320 hc        1 MOL      0.141355
     18 H7          3.0250   -1.4800    3.4140 hc        1 MOL      0.141355
     19 N2          0.9020   -4.2650    0.8860 n         1 MOL     -0.407066
     20 C7          0.8170   -5.4700    0.0060 c3        1 MOL     -0.142479
     21 C8          1.9930   -5.6030   -1.0600 c         1 MOL      0.644037
     22 O5          2.1090   -6.5230   -1.7240 o         1 MOL     -0.542772
     23 C9         -0.6060   -5.3230   -0.6460 c3        1 MOL      0.048242
     24 C10        -1.0150   -6.6280   -1.3580 c3        1 MOL      0.175536
     25 C11        -2.4520   -6.5470   -1.8340 c3        1 MOL     -0.036913
     26 C12        -2.8960   -7.9880   -2.2450 c3        1 MOL     -0.101940
     27 N3         -4.3170   -7.9610   -2.5860 n4        1 MOL     -0.088115
     28 H8          0.8250   -3.3770    0.4150 hn        1 MOL      0.390981
     29 H9          0.8160   -6.4250    0.5250 h1        1 MOL      0.139739
     30 H10        -0.7430   -4.4940   -1.3240 hc        1 MOL     -0.015985
     31 H11        -1.3800   -5.1860    0.1190 hc        1 MOL     -0.015985
     32 H12        -0.7770   -7.4650   -0.7110 hc        1 MOL     -0.030482
     33 H13        -0.3560   -6.7440   -2.2290 hc        1 MOL     -0.030482
     34 H14        -2.5990   -5.8760   -2.6780 hc        1 MOL      0.045876
     35 H15        -3.1440   -6.2610   -1.0380 hc        1 MOL      0.045876
     36 H16        -2.7260   -8.7100   -1.4440 hx        1 MOL      0.097189
     37 H17        -2.3300   -8.1020   -3.1690 hx        1 MOL      0.097189
     38 H18        -4.5200   -8.7780   -3.1490 hn        1 MOL      0.220130
     39 H19        -4.9700   -7.8650   -1.8190 hn        1 MOL      0.220130
     40 H20        -4.4890   -7.2270   -3.2530 hn        1 MOL      0.220130
     41 N4          3.0190   -4.7220   -0.9680 n         1 MOL     -0.321098
     42 C13         4.2420   -4.6710   -1.7390 c3        1 MOL     -0.012018
     43 C14         5.4830   -4.1730   -0.8490 c         1 MOL      0.359082
     44 O6          6.6790   -4.3440   -1.3030 o         1 MOL     -0.498596
     45 C15         4.0710   -3.7310   -2.9240 c3        1 MOL     -0.323044
     46 C16         3.5140   -2.3520   -2.5670 c         1 MOL      0.648247
     47 O7          4.3660   -1.5410   -2.1150 o         1 MOL     -0.659594
     48 O8          2.4420   -1.8560   -3.0270 o         1 MOL     -0.659594
     49 H21         2.7670   -3.9140   -0.4300 hn        1 MOL      0.067950
     50 H22         4.4590   -5.6370   -2.1810 h1        1 MOL      0.136242
     51 H23         3.4270   -4.2500   -3.6360 hc        1 MOL      0.125552
     52 H24         5.0460   -3.5350   -3.3760 hc        1 MOL      0.125552
     53 N5          5.2020   -3.5720    0.3320 n         1 MOL     -0.157810
     54 C17         6.2690   -3.1970    1.2940 c3        1 MOL     -0.064919
     55 C18         6.9910   -1.9060    1.0690 c         1 MOL      0.568794
     56 O9          7.5870   -1.3620    1.9820 o         1 MOL     -0.568808
     57 H25         4.2360   -3.4690    0.6170 hn        1 MOL      0.162803
     58 H26         6.9970   -4.0120    1.2900 h1        1 MOL      0.075573
     59 H27         5.9170   -3.1100    2.3200 h1        1 MOL      0.075573
     60 N6          6.8220   -1.2500   -0.1190 n         1 MOL     -0.171912
     61 C19         7.2700    0.0950   -0.5190 c3        1 MOL     -0.018114
     62 C20         6.2850    1.2570   -0.2230 c         1 MOL      0.601351
     63 O10         5.1070    1.2050   -0.6460 o         1 MOL     -0.498225
     64 C21         7.5310    0.0350   -1.9850 c3        1 MOL     -0.200307
     65 C22         8.6360   -0.7900   -2.5560 c         1 MOL      0.659134
     66 N7          8.1950   -1.8170   -3.2960 n         1 MOL     -0.727580
     67 O11         9.7710   -0.3370   -2.5790 o         1 MOL     -0.558937
     68 H28         6.4250   -1.7820   -0.8830 hn        1 MOL      0.057128
     69 H29         8.2410    0.2280   -0.0390 h1        1 MOL      0.056313
     70 H30         7.9490    1.0200   -2.2000 hc        1 MOL      0.053985
     71 H31         6.6060   -0.2030   -2.5160 hc        1 MOL      0.053985
     72 H32         7.2110   -1.8720   -3.5420 hn        1 MOL      0.352368
     73 H33         8.8980   -2.2700   -3.8550 hn        1 MOL      0.352368
     74 N8          6.8780    2.3370    0.3570 n         1 MOL     -0.490656
     75 C23         6.2760    3.6700    0.0430 c3        1 MOL     -0.027564
     76 C24         4.9980    4.1240    0.7060 c         1 MOL      0.666121
     77 O12         4.8520    4.0400    1.9190 o         1 MOL     -0.487205
     78 H34         7.8670    2.2760    0.5350 hn        1 MOL      0.347795
     79 H35         6.1100    3.6370   -1.0420 h1        1 MOL      0.063009
     80 H36         7.0250    4.4330    0.2740 h1        1 MOL      0.063009
     81 N9          4.0180    4.6490   -0.1110 n         1 MOL     -0.797528
     82 C25         2.6230    4.8410    0.3070 c3        1 MOL      0.541113
     83 C26         1.9870    3.4510    0.5210 c         1 MOL      0.291268
     84 O13         2.5220    2.4530    0.0490 o         1 MOL     -0.412559
     85 C27         1.8830    5.8550   -0.6000 c3        1 MOL     -0.196739
     86 C28         2.6490    7.1630   -0.7290 ca        1 MOL      0.223209
     87 C29         3.4520    7.4760   -1.8580 ca        1 MOL     -0.298273
     88 C30         2.6540    7.9720    0.3710 ca        1 MOL     -0.298273
     89 C31         4.3410    8.5760   -1.8210 ca        1 MOL     -0.077566
     90 C32         3.4120    9.1680    0.4220 ca        1 MOL     -0.077566
     91 C33         4.3080    9.3880   -0.7040 ca        1 MOL      0.150533
     92 O14         5.0080   10.5870   -0.7300 oh        1 MOL     -0.454403
     93 H37         4.1770    4.7160   -1.0990 hn        1 MOL      0.300016
     94 H38         2.6770    5.2620    1.3030 h1        1 MOL     -0.000576
     95 H39         0.8840    6.0000   -0.1870 hc        1 MOL      0.035953
     96 H40         1.7520    5.4050   -1.5870 hc        1 MOL      0.035953
     97 H41         3.5850    6.7420   -2.6440 ha        1 MOL      0.147634
     98 H42         2.1830    7.7110    1.3090 ha        1 MOL      0.147634
     99 H43         5.0380    8.6770   -2.6360 ha        1 MOL      0.131226
    100 H44         3.3950    9.8420    1.2750 ha        1 MOL      0.131226
    101 H45         5.6580   10.6590   -1.4330 ho        1 MOL      0.358596
    102 N10         0.8640    3.3750    1.2610 n         1 MOL     -0.636272
    103 C34         0.3870    2.2050    1.9430 c3        1 MOL      0.272591
    104 C35        -0.1050    1.0250    1.0680 c         1 MOL      0.388895
    105 O15         0.7860    0.2630    0.6840 o         1 MOL     -0.410226
    106 C36         1.4190    1.7610    3.0720 c3        1 MOL      0.224753
    107 C37         0.9870    0.5320    3.8490 c3        1 MOL     -0.118223
    108 C38         1.8040    2.8910    4.1190 c3        1 MOL     -0.443035
    109 C39        -0.3350    0.7460    4.6580 c3        1 MOL     -0.160570
    110 H46         0.4740    4.2720    1.5210 hn        1 MOL      0.302176
    111 H47        -0.4510    2.6080    2.5060 h1        1 MOL      0.037070
    112 H48         2.3140    1.4720    2.5260 hc        1 MOL      0.017710
    113 H49         1.8350    0.2850    4.4860 hc        1 MOL      0.071666
    114 H50         0.7750   -0.2400    3.1170 hc        1 MOL      0.071666
    115 H51         2.4090    3.6720    3.6700 hc        1 MOL      0.113869
    116 H52         0.9060    3.3240    4.5730 hc        1 MOL      0.113869
    117 H53         2.5690    2.5660    4.8110 hc        1 MOL      0.113869
    118 H54        -0.1860    1.3230    5.5720 hc        1 MOL      0.037001
    119 H55        -1.0780    1.2560    4.0450 hc        1 MOL      0.037001
    120 H56        -0.6670   -0.2340    4.9950 hc        1 MOL      0.037001
    121 N11        -1.3710    0.7740    0.9100 n         1 MOL     -0.412416
    122 C40        -1.8610   -0.4600    0.2260 c3        1 MOL     -0.220377
    123 C41        -3.3270   -0.3930   -0.2230 c         1 MOL      0.642355
    124 O16        -3.6370   -1.1190   -1.2400 o         1 MOL     -0.556403
    125 C42        -1.6650   -1.7990    0.9560 c3        1 MOL      0.556142
    126 O17        -2.2660   -1.6930    2.2410 oh        1 MOL     -0.638685
    127 H57        -2.0150    1.3840    1.3760 hn        1 MOL      0.265223
    128 H58        -1.3030   -0.6550   -0.6980 h1        1 MOL      0.167617
    129 H59        -0.5850   -1.9600    1.0450 h1        1 MOL     -0.128400
    130 H60        -2.2390   -2.5150    0.3750 h1        1 MOL     -0.128400
    131 H61        -1.9330   -2.4120    2.7800 ho        1 MOL      0.412141
    132 N12        -4.1840    0.4350    0.3440 n         1 MOL     -0.571023
    133 C43        -5.5730    0.5680   -0.1030 c3        1 MOL      0.017191
    134 C44        -5.6640    1.1940   -1.5300 c         1 MOL      0.729669
    135 O18        -4.7570    1.6970   -2.1660 o         1 MOL     -0.600540
    136 C45        -6.3210    1.3910    0.9760 c3        1 MOL     -0.306189
    137 H62        -3.9360    1.0730    1.0840 hn        1 MOL      0.363047
    138 H63        -6.1030   -0.3930   -0.0940 h1        1 MOL      0.153041
    139 H64        -6.0740    1.1470    2.0070 hc        1 MOL      0.096081
    140 H65        -6.0580    2.4440    0.8530 hc        1 MOL      0.096081
    141 H66        -7.3910    1.3530    0.8120 hc        1 MOL      0.096081
    142 N13        -6.7860    1.1070   -2.1870 n         1 MOL     -0.693070
    143 C46        -8.0620    0.5330   -1.8250 c3        1 MOL      0.255245
    144 C47        -9.2330    1.1650   -2.5360 c         1 MOL      0.504405
    145 O19        -9.0550    1.3690   -3.7550 o         1 MOL     -0.580548
    146 C48        -8.0120   -0.9440   -2.1830 c3        1 MOL     -0.073858
    147 H67        -6.7600    1.3450   -3.1610 hn        1 MOL      0.358099
    148 H68        -8.1950    0.6640   -0.7510 h1        1 MOL      0.024045
    149 H69        -8.7870   -1.4810   -1.6440 hc        1 MOL      0.021913
    150 H70        -8.1930   -1.0840   -3.2450 hc        1 MOL      0.021913
    151 H71        -7.0600   -1.3350   -1.8080 hc        1 MOL      0.021913
    152 N14       -10.2920    1.7110   -1.9430 n         1 MOL     -0.389257
    153 C49       -10.6020    1.6050   -0.4820 c3        1 MOL     -0.002516
    154 C50        -9.8390    2.7610    0.2230 c         1 MOL      0.531338
    155 O20        -9.4830    2.5790    1.3820 o         1 MOL     -0.527491
    156 C51       -12.2130    1.6320   -0.3210 c3        1 MOL      0.006996
    157 C52       -12.6170    0.8800    0.9810 c3        1 MOL      0.135571
    158 C53       -12.5910   -0.6090    0.8140 c         1 MOL      0.587104
    159 O21       -13.6700   -1.2190    0.7350 o         1 MOL     -0.633308
    160 O22       -11.5420   -1.2350    0.5130 o         1 MOL     -0.633308
    161 H72       -11.0420    1.9530   -2.5840 hn        1 MOL      0.247726
    162 H73       -10.1890    0.6320   -0.2330 h1        1 MOL      0.016023
    163 H74       -12.7970    1.0740   -1.0460 hc        1 MOL      0.014681
    164 H75       -12.5520    2.6690   -0.2400 hc        1 MOL      0.014681
    165 H76       -13.6390    1.1280    1.2820 hc        1 MOL     -0.068013
    166 H77       -12.0130    1.2100    1.8340 hc        1 MOL     -0.068013
    167 N15        -9.5550    3.8410   -0.4200 n         1 MOL     -0.285381
    168 C54        -8.6310    4.8680    0.1120 c3        1 MOL     -0.283916
    169 H78        -7.6420    4.4310    0.2490 h1        1 MOL      0.122136
    170 H79        -8.5670    5.6990   -0.5910 h1        1 MOL      0.122136
    171 H80        -9.0040    5.2310    1.0700 h1        1 MOL      0.122136
    172 H81        -9.8820    3.9970   -1.3670 hn        1 MOL      0.236663
    173 Ca1         2.7530    0.1070   -1.0380 Ca        1 MOL      1.680830
    174 O23         3.1840    1.9490   -2.9680 oh        1 MOL     -0.910588
    175 H82         2.4030    2.3340   -3.3600 ho        1 MOL      0.445727
    176 H83         3.9140    2.4330   -3.3350 ho        1 MOL      0.445727
    177 O24         0.4460    0.6220   -2.4330 oh        1 MOL     -0.910588
    178 H84        -0.2160    0.2110   -2.9790 ho        1 MOL      0.445727
    179 H85         0.2050    1.5440   -2.4030 ho        1 MOL      0.445727
@<TRIPOS>BOND
     1    1    2 1   
     2    1    4 1   
     3    1    5 1   
     4    1    6 1   
     5    2    3 2   
     6    2    7 1   
     7    7    8 1   
     8    7   15 1   
     9    8    9 1   
    10    8   11 1   
    11    8   16 1   
    12    9   10 2   
    13    9   19 1   
    14   11   12 1   
    15   11   17 1   
    16   11   18 1   
    17   12   13 1   
    18   12   14 1   
    19   19   20 1   
    20   19   28 1   
    21   20   21 1   
    22   20   23 1   
    23   20   29 1   
    24   21   22 2   
    25   21   41 1   
    26   23   24 1   
    27   23   30 1   
    28   23   31 1   
    29   24   25 1   
    30   24   32 1   
    31   24   33 1   
    32   25   26 1   
    33   25   34 1   
    34   25   35 1   
    35   26   27 1   
    36   26   36 1   
    37   26   37 1   
    38   27   38 1   
    39   27   39 1   
    40   27   40 1   
    41   41   42 1   
    42   41   49 1   
    43   42   43 1   
    44   42   45 1   
    45   42   50 1   
    46   43   44 2   
    47   43   53 1   
    48   45   46 1   
    49   45   51 1   
    50   45   52 1   
    51   46   47 1   
    52   46   48 1   
    53   53   54 1   
    54   53   57 1   
    55   54   55 1   
    56   54   58 1   
    57   54   59 1   
    58   55   56 2   
    59   55   60 1   
    60   60   61 1   
    61   60   68 1   
    62   61   62 1   
    63   61   64 1   
    64   61   69 1   
    65   62   63 2   
    66   62   74 1   
    67   64   65 1   
    68   64   70 1   
    69   64   71 1   
    70   65   66 1   
    71   65   67 2   
    72   66   72 1   
    73   66   73 1   
    74   74   75 1   
    75   74   78 1   
    76   75   76 1   
    77   75   79 1   
    78   75   80 1   
    79   76   77 2   
    80   76   81 1   
    81   81   82 1   
    82   81   93 1   
    83   82   83 1   
    84   82   85 1   
    85   82   94 1   
    86   83   84 2   
    87   83  102 1   
    88   85   86 1   
    89   85   95 1   
    90   85   96 1   
    91   86   87 ar  
    92   86   88 ar  
    93   87   89 ar  
    94   87   97 1   
    95   88   90 ar  
    96   88   98 1   
    97   89   91 ar  
    98   89   99 1   
    99   90   91 ar  
   100   90  100 1   
   101   91   92 1   
   102   92  101 1   
   103  102  103 1   
   104  102  110 1   
   105  103  104 1   
   106  103  106 1   
   107  103  111 1   
   108  104  105 2   
   109  104  121 1   
   110  106  107 1   
   111  106  108 1   
   112  106  112 1   
   113  107  109 1   
   114  107  113 1   
   115  107  114 1   
   116  108  115 1   
   117  108  116 1   
   118  108  117 1   
   119  109  118 1   
   120  109  119 1   
   121  109  120 1   
   122  121  122 1   
   123  121  127 1   
   124  122  123 1   
   125  122  125 1   
   126  122  128 1   
   127  123  124 2   
   128  123  132 1   
   129  125  126 1   
   130  125  129 1   
   131  125  130 1   
   132  126  131 1   
   133  132  133 1   
   134  132  137 1   
   135  133  134 1   
   136  133  136 1   
   137  133  138 1   
   138  134  135 2   
   139  134  142 1   
   140  136  139 1   
   141  136  140 1   
   142  136  141 1   
   143  142  143 1   
   144  142  147 1   
   145  143  144 1   
   146  143  146 1   
   147  143  148 1   
   148  144  145 2   
   149  144  152 1   
   150  146  149 1   
   151  146  150 1   
   152  146  151 1   
   153  152  153 1   
   154  152  161 1   
   155  153  154 1   
   156  153  156 1   
   157  153  162 1   
   158  154  155 2   
   159  154  167 1   
   160  156  157 1   
   161  156  163 1   
   162  156  164 1   
   163  157  158 1   
   164  157  165 1   
   165  157  166 1   
   166  158  159 1   
   167  158  160 1   
   168  167  168 1   
   169  167  172 1   
   170  168  169 1   
   171  168  170 1   
   172  168  171 1   
   173  174  175 1   
   174  174  176 1   
   175  177  178 1   
   176  177  179 1   
@<TRIPOS>SUBSTRUCTURE
     1 MOL         1 TEMP              0 ****  ****    0 ROOT
