@<TRIPOS>MOLECULE
MOL
  178   175     1     0     0
SMALL
resp


@<TRIPOS>ATOM
      1 C1          2.1230   -4.0930    3.3540 c3        1 MOL     -0.327269
      2 C2          3.0630   -2.9000    3.1500 c         1 MOL      0.656630
      3 O1          2.8110   -2.0500    2.3270 o         1 MOL     -0.498199
      4 H1          1.3550   -3.8290    4.0810 hc        1 MOL      0.084922
      5 H2          1.6510   -4.3510    2.4060 hc        1 MOL      0.084922
      6 H3          2.6930   -4.9460    3.7220 hc        1 MOL      0.084922
      7 N1          4.2460   -2.8020    3.7990 n         1 MOL     -0.682274
      8 C3          5.2490   -1.7240    3.5540 c3        1 MOL      0.530504
      9 C4          6.2600   -1.7640    2.4330 c         1 MOL      0.141867
     10 O2          6.6220   -0.7470    1.9150 o         1 MOL     -0.315851
     11 C5          5.9720   -1.3080    4.8710 c3        1 MOL     -0.126098
     12 C6          7.0690   -0.2410    4.7530 c         1 MOL      0.663565
     13 O3          6.6710    0.9540    4.9810 o         1 MOL     -0.697177
     14 O4          8.2230   -0.6040    4.4340 o         1 MOL     -0.697177
     15 H4          4.5290   -3.4910    4.4810 hn        1 MOL      0.294299
     16 H5          4.7080   -0.8150    3.3060 h1        1 MOL     -0.016927
     17 H6          6.3840   -2.2740    5.1970 hc        1 MOL     -0.040150
     18 H7          5.1760   -1.0750    5.5690 hc        1 MOL     -0.040150
     19 N2          6.8270   -2.9340    2.1250 n         1 MOL     -0.344660
     20 C7          7.7690   -3.2080    0.9480 c3        1 MOL      0.187625
     21 C8          7.3650   -2.5920   -0.4090 c         1 MOL      0.532589
     22 O5          8.1780   -2.2070   -1.2450 o         1 MOL     -0.510360
     23 C9          9.1370   -2.8120    1.5230 c3        1 MOL     -0.487079
     24 H8          6.6610   -3.7640    2.6780 hn        1 MOL      0.227613
     25 H9          7.8400   -4.2550    0.6570 h1        1 MOL      0.030492
     26 H10         9.9760   -3.0880    0.8920 hc        1 MOL      0.137156
     27 H11         9.1500   -1.7270    1.6350 hc        1 MOL      0.137156
     28 H12         9.2130   -3.1750    2.5470 hc        1 MOL      0.137156
     29 N3          6.0440   -2.6720   -0.5960 n         1 MOL     -0.698315
     30 C10         5.3350   -2.1330   -1.6560 c3        1 MOL      0.636289
     31 C11         5.6720   -0.6530   -1.9140 c         1 MOL      0.141838
     32 O6          5.4350   -0.2060   -3.0050 o         1 MOL     -0.391318
     33 C12         5.4280   -2.9880   -2.8820 c3        1 MOL     -0.158596
     34 C13         4.3740   -2.6860   -3.9070 c         1 MOL      0.528848
     35 O7          4.6260   -2.7090   -5.1720 o         1 MOL     -0.674962
     36 O8          3.2320   -2.3050   -3.4690 o         1 MOL     -0.674962
     37 H13         5.5010   -2.9650    0.1990 hn        1 MOL      0.215965
     38 H14         4.2910   -2.1620   -1.3510 h1        1 MOL      0.005236
     39 H15         5.3040   -4.0540   -2.6800 hc        1 MOL      0.022042
     40 H16         6.4300   -2.8020   -3.2620 hc        1 MOL      0.022042
     41 N4          6.0660    0.1830   -0.9460 n         1 MOL      0.038015
     42 C14         6.3640    1.6000   -1.0220 c3        1 MOL     -0.159275
     43 C15         5.2940    2.5850   -1.5670 c         1 MOL      0.571578
     44 O9          5.6920    3.4830   -2.3060 o         1 MOL     -0.564945
     45 H17         6.2230   -0.2950   -0.0590 hn        1 MOL      0.032487
     46 H18         7.2960    1.6810   -1.6020 h1        1 MOL      0.083113
     47 H19         6.4930    1.9290    0.0030 h1        1 MOL      0.083113
     48 N5          4.0310    2.3310   -1.3820 n         1 MOL     -0.345697
     49 C16         2.9210    3.0590   -2.1050 c3        1 MOL      0.019245
     50 C17         2.6480    4.4840   -1.5230 c         1 MOL      0.495360
     51 O10         3.0010    4.8130   -0.3930 o         1 MOL     -0.525028
     52 C18         1.6830    2.1650   -2.2270 c3        1 MOL     -0.216910
     53 C19         2.0520    0.8240   -2.9420 c         1 MOL      0.506788
     54 N6          2.5170    0.7360   -4.1640 n         1 MOL     -0.752987
     55 O11         1.9440   -0.2520   -2.3350 o         1 MOL     -0.555297
     56 H20         3.7800    1.5330   -0.8150 hn        1 MOL      0.246202
     57 H21         3.2830    3.2770   -3.1140 h1        1 MOL      0.024418
     58 H22         0.9030    2.6980   -2.7720 hc        1 MOL      0.141563
     59 H23         1.2050    1.9780   -1.2680 hc        1 MOL      0.141563
     60 H24         2.8240    1.5590   -4.6690 hn        1 MOL      0.369703
     61 H25         2.7300   -0.1620   -4.5660 hn        1 MOL      0.369703
     62 N7          2.0560    5.3400   -2.3330 n         1 MOL     -0.311735
     63 C20         1.7690    6.7270   -2.0420 c3        1 MOL     -0.091840
     64 C21         0.2220    6.9260   -1.8060 c         1 MOL      0.516733
     65 O12        -0.6290    6.5260   -2.5720 o         1 MOL     -0.501998
     66 H26         1.5660    4.9120   -3.1090 hn        1 MOL      0.229032
     67 H27         2.1980    7.3690   -2.8030 h1        1 MOL      0.092779
     68 H28         2.2130    6.9730   -1.0810 h1        1 MOL      0.092779
     69 N8         -0.1240    7.6040   -0.7230 n         1 MOL     -0.528200
     70 C22        -1.4570    7.7770   -0.1610 c3        1 MOL      0.013842
     71 C23        -1.9010    6.6400    0.6980 c         1 MOL      0.389097
     72 O13        -2.8130    6.8360    1.5110 o         1 MOL     -0.559984
     73 C24        -1.5340    9.0860    0.5080 c3        1 MOL      0.406249
     74 C25        -0.7950    9.1890    1.8930 c3        1 MOL     -0.366455
     75 O14        -1.0690   10.1920   -0.3140 oh        1 MOL     -0.598191
     76 H29         0.6330    7.9220   -0.1400 hn        1 MOL      0.268742
     77 H30        -2.1500    7.8460   -0.9930 h1        1 MOL      0.124737
     78 H31        -2.5910    9.3510    0.5510 h1        1 MOL      0.032518
     79 H32        -0.1240   10.0760   -0.2480 ho        1 MOL      0.345781
     80 H33        -1.2740    8.4640    2.5410 hc        1 MOL      0.091229
     81 H34         0.2640    8.9280    1.8630 hc        1 MOL      0.091229
     82 H35        -0.8500   10.2210    2.2450 hc        1 MOL      0.091229
     83 N9         -1.3760    5.3950    0.5900 n         1 MOL     -0.157785
     84 C26        -1.8950    4.1420    1.2870 c3        1 MOL     -0.061089
     85 C27        -1.9070    3.0230    0.2000 c         1 MOL      0.473658
     86 O15        -1.1960    3.1080   -0.7880 o         1 MOL     -0.482527
     87 C28        -1.0440    3.8740    2.5120 c3        1 MOL      0.141589
     88 C29         0.4400    3.7150    2.3740 c3        1 MOL     -0.244852
     89 C30        -1.5480    4.9460    3.5030 c3        1 MOL     -0.126984
     90 C31         1.0920    2.8430    3.4690 c3        1 MOL     -0.200289
     91 H36        -0.7720    5.2380   -0.2070 hn        1 MOL      0.126215
     92 H37        -2.9370    4.3220    1.5580 h1        1 MOL      0.087203
     93 H38        -1.5180    2.9510    2.8380 hc        1 MOL     -0.025031
     94 H39         0.8250    4.7270    2.3250 hc        1 MOL      0.137968
     95 H40         0.7310    3.1720    1.4730 hc        1 MOL      0.137968
     96 H41        -2.6120    5.1200    3.6300 hc        1 MOL      0.032636
     97 H42        -1.1370    4.6620    4.4690 hc        1 MOL      0.032636
     98 H43        -1.1430    5.9240    3.2410 hc        1 MOL      0.032636
     99 H44         0.5360    1.9400    3.7240 hc        1 MOL      0.072489
    100 H45         2.0310    2.5530    3.0030 hc        1 MOL      0.072489
    101 H46         1.1980    3.5030    4.3340 hc        1 MOL      0.072489
    102 N10        -2.5340    1.8960    0.5430 n         1 MOL     -0.598583
    103 C32        -2.4930    0.6360   -0.1280 c3        1 MOL      0.372694
    104 C33        -3.7830   -0.0610   -0.2110 c         1 MOL      0.373426
    105 O16        -3.7300   -1.3130   -0.2020 o         1 MOL     -0.423296
    106 C34        -1.3290   -0.1260    0.5770 c3        1 MOL     -0.141778
    107 C35        -0.5190   -1.0530   -0.3470 c         1 MOL      0.606729
    108 O17         0.5430   -1.5720   -0.0140 o         1 MOL     -0.722781
    109 O18        -1.0160   -1.4200   -1.4470 o         1 MOL     -0.722781
    110 H47        -3.1130    1.9820    1.3640 hn        1 MOL      0.276834
    111 H48        -2.1430    0.7540   -1.1530 h1        1 MOL      0.015119
    112 H49        -1.7800   -0.6950    1.3860 hc        1 MOL      0.054457
    113 H50        -0.5840    0.5350    1.0100 hc        1 MOL      0.054457
    114 N11        -4.9110    0.6690   -0.2720 n         1 MOL     -0.428716
    115 C36        -6.2080    0.0710   -0.5490 c3        1 MOL      0.058916
    116 C37        -6.4200   -1.2530    0.2740 c         1 MOL      0.450255
    117 O19        -6.1800   -1.2710    1.4400 o         1 MOL     -0.512906
    118 C38        -7.2930    1.0780   -0.3420 c3        1 MOL     -0.129541
    119 C39        -8.6520    0.4340   -0.4550 ca        1 MOL     -0.013334
    120 C40        -9.1250    0.0080   -1.7030 ca        1 MOL     -0.090020
    121 C41        -9.3580    0.2780    0.7360 ca        1 MOL     -0.090020
    122 C42       -10.4940   -0.4230   -1.7610 ca        1 MOL     -0.148067
    123 C43       -10.7300   -0.1320    0.7310 ca        1 MOL     -0.148067
    124 C44       -11.2410   -0.5420   -0.5320 ca        1 MOL     -0.116648
    125 H51        -4.8510    1.6770   -0.2100 hn        1 MOL      0.268556
    126 H52        -6.1670   -0.2350   -1.5950 h1        1 MOL      0.079039
    127 H53        -7.1930    1.8110   -1.1500 hc        1 MOL      0.075527
    128 H54        -7.2300    1.6380    0.5960 hc        1 MOL      0.075527
    129 H55        -8.5550    0.0370   -2.6200 ha        1 MOL      0.112615
    130 H56        -8.8860    0.6140    1.6480 ha        1 MOL      0.112615
    131 H57       -10.9250   -0.6420   -2.7300 ha        1 MOL      0.125840
    132 H58       -11.2620   -0.2050    1.6640 ha        1 MOL      0.125840
    133 H59       -12.2660   -0.8870   -0.5120 ha        1 MOL      0.104506
    134 N12        -6.8300   -2.3850   -0.4370 n         1 MOL     -0.039122
    135 C45        -7.1560   -3.5780    0.3230 c3        1 MOL     -0.003664
    136 C46        -6.0410   -4.1290    1.2850 c         1 MOL      0.307746
    137 O20        -6.3080   -4.8450    2.2350 o         1 MOL     -0.524177
    138 C47        -7.6910   -4.5860   -0.7410 c3        1 MOL     -0.096112
    139 C48        -7.0540   -4.1650   -2.0560 c3        1 MOL     -0.010336
    140 C49        -7.1900   -2.6370   -1.8150 c3        1 MOL     -0.081858
    141 H60        -7.9940   -3.2710    0.9530 h1        1 MOL      0.065737
    142 H61        -7.4780   -5.6080   -0.4190 hc        1 MOL      0.044643
    143 H62        -8.7570   -4.4150   -0.8630 hc        1 MOL      0.044643
    144 H63        -6.0130   -4.4960   -1.9770 hc        1 MOL      0.032740
    145 H64        -7.5980   -4.4700   -2.9480 hc        1 MOL      0.032740
    146 H65        -6.5240   -2.1000   -2.4880 h1        1 MOL      0.033160
    147 H66        -8.1750   -2.2330   -2.0290 h1        1 MOL      0.033160
    148 N13        -4.7790   -3.7180    1.1160 n         1 MOL      0.002841
    149 C50        -3.5650   -4.1420    1.9240 c3        1 MOL     -0.155778
    150 C51        -3.4260   -3.2530    3.1650 c         1 MOL      0.389112
    151 O21        -3.3420   -3.8820    4.2450 o         1 MOL     -0.517037
    152 C52        -2.2810   -4.1500    1.0500 c3        1 MOL     -0.016132
    153 C53        -2.3740   -5.0550   -0.2190 c3        1 MOL     -0.170312
    154 C54        -1.2050   -4.7740   -1.1390 c         1 MOL      0.631853
    155 O22        -1.3780   -4.4100   -2.3310 o         1 MOL     -0.715288
    156 O23        -0.0670   -4.8430   -0.6980 o         1 MOL     -0.715288
    157 H67        -4.6250   -3.1150    0.3160 hn        1 MOL      0.151745
    158 H68        -3.7090   -5.1520    2.3110 h1        1 MOL      0.113989
    159 H69        -1.4590   -4.5780    1.6300 hc        1 MOL      0.080183
    160 H70        -2.2540   -3.1150    0.7400 hc        1 MOL      0.080183
    161 H71        -3.3260   -4.9590   -0.7430 hc        1 MOL      0.025069
    162 H72        -2.2920   -6.0180    0.2890 hc        1 MOL      0.025069
    163 N14        -3.5570   -1.9130    3.0520 n         1 MOL     -0.163382
    164 C55        -3.6130   -1.0050    4.2090 c3        1 MOL     -0.219796
    165 H73        -3.7270   -1.5890    5.1220 h1        1 MOL      0.089080
    166 H74        -2.6920   -0.4260    4.2620 h1        1 MOL      0.089080
    167 H75        -4.4620   -0.3300    4.1010 h1        1 MOL      0.089080
    168 H76        -3.7910   -1.4490    2.1910 hn        1 MOL      0.247966
    169 Ca1         1.0020   -2.9920   -2.2740 Ca        1 MOL      1.766343
    170 O24         0.3240   -2.8140   -4.9440 oh        1 MOL     -0.850375
    171 H77         1.1830   -2.7350   -5.3640 ho        1 MOL      0.412162
    172 H78        -0.3110   -2.6040   -5.6280 ho        1 MOL      0.412162
    173 O25         2.7040   -3.4810   -0.1970 oh        1 MOL     -0.850375
    174 H79         2.4310   -2.8260    0.4450 ho        1 MOL      0.412162
    175 H80         3.2790   -4.0720    0.2940 ho        1 MOL      0.412162
    176 O26         2.2300   -5.3110   -3.1390 oh        1 MOL     -0.850375
    177 H81         1.7400   -6.0760   -3.4270 ho        1 MOL      0.412162
    178 H82         3.1270   -5.6360   -3.0270 ho        1 MOL      0.412162
@<TRIPOS>BOND
     1    1    2 1   
     2    1    4 1   
     3    1    5 1   
     4    1    6 1   
     5    2    3 2   
     6    2    7 1   
     7    7    8 1   
     8    7   15 1   
     9    8    9 1   
    10    8   11 1   
    11    8   16 1   
    12    9   10 2   
    13    9   19 1   
    14   11   12 1   
    15   11   17 1   
    16   11   18 1   
    17   12   13 1   
    18   12   14 1   
    19   19   20 1   
    20   19   24 1   
    21   20   21 1   
    22   20   23 1   
    23   20   25 1   
    24   21   22 2   
    25   21   29 1   
    26   23   26 1   
    27   23   27 1   
    28   23   28 1   
    29   29   30 1   
    30   29   37 1   
    31   30   31 1   
    32   30   33 1   
    33   30   38 1   
    34   31   32 2   
    35   31   41 1   
    36   33   34 1   
    37   33   39 1   
    38   33   40 1   
    39   34   35 1   
    40   34   36 1   
    41   41   42 1   
    42   41   45 1   
    43   42   43 1   
    44   42   46 1   
    45   42   47 1   
    46   43   44 2   
    47   43   48 1   
    48   48   49 1   
    49   48   56 1   
    50   49   50 1   
    51   49   52 1   
    52   49   57 1   
    53   50   51 2   
    54   50   62 1   
    55   52   53 1   
    56   52   58 1   
    57   52   59 1   
    58   53   54 1   
    59   53   55 2   
    60   54   60 1   
    61   54   61 1   
    62   62   63 1   
    63   62   66 1   
    64   63   64 1   
    65   63   67 1   
    66   63   68 1   
    67   64   65 2   
    68   64   69 1   
    69   69   70 1   
    70   69   76 1   
    71   70   71 1   
    72   70   73 1   
    73   70   77 1   
    74   71   72 2   
    75   71   83 1   
    76   73   74 1   
    77   73   75 1   
    78   73   78 1   
    79   74   80 1   
    80   74   81 1   
    81   74   82 1   
    82   75   79 1   
    83   83   84 1   
    84   83   91 1   
    85   84   85 1   
    86   84   87 1   
    87   84   92 1   
    88   85   86 2   
    89   85  102 1   
    90   87   88 1   
    91   87   89 1   
    92   87   93 1   
    93   88   90 1   
    94   88   94 1   
    95   88   95 1   
    96   89   96 1   
    97   89   97 1   
    98   89   98 1   
    99   90   99 1   
   100   90  100 1   
   101   90  101 1   
   102  102  103 1   
   103  102  110 1   
   104  103  104 1   
   105  103  106 1   
   106  103  111 1   
   107  104  105 2   
   108  104  114 1   
   109  106  107 1   
   110  106  112 1   
   111  106  113 1   
   112  107  108 1   
   113  107  109 1   
   114  114  115 1   
   115  114  125 1   
   116  115  116 1   
   117  115  118 1   
   118  115  126 1   
   119  116  117 2   
   120  116  134 1   
   121  118  119 1   
   122  118  127 1   
   123  118  128 1   
   124  119  120 ar  
   125  119  121 ar  
   126  120  122 ar  
   127  120  129 1   
   128  121  123 ar  
   129  121  130 1   
   130  122  124 ar  
   131  122  131 1   
   132  123  124 ar  
   133  123  132 1   
   134  124  133 1   
   135  134  135 1   
   136  134  140 1   
   137  135  136 1   
   138  135  138 1   
   139  135  141 1   
   140  136  137 2   
   141  136  148 1   
   142  138  139 1   
   143  138  142 1   
   144  138  143 1   
   145  139  140 1   
   146  139  144 1   
   147  139  145 1   
   148  140  146 1   
   149  140  147 1   
   150  148  149 1   
   151  148  157 1   
   152  149  150 1   
   153  149  152 1   
   154  149  158 1   
   155  150  151 2   
   156  150  163 1   
   157  152  153 1   
   158  152  159 1   
   159  152  160 1   
   160  153  154 1   
   161  153  161 1   
   162  153  162 1   
   163  154  155 1   
   164  154  156 1   
   165  163  164 1   
   166  163  168 1   
   167  164  165 1   
   168  164  166 1   
   169  164  167 1   
   170  170  171 1   
   171  170  172 1   
   172  173  174 1   
   173  173  175 1   
   174  176  177 1   
   175  176  178 1   
@<TRIPOS>SUBSTRUCTURE
     1 MOL         1 TEMP              0 ****  ****    0 ROOT
