@<TRIPOS>MOLECULE
MOL
  201   193     1     0     0
SMALL
resp


@<TRIPOS>ATOM
      1 C1         -3.7660   -3.6230    2.8170 c3        1 MOL     -0.302591
      2 C2         -2.7630   -3.8160    1.6060 c         1 MOL      0.712384
      3 O1         -1.9440   -2.9660    1.3320 o         1 MOL     -0.530437
      4 H1         -4.1130   -2.5900    2.8390 hc        1 MOL      0.071603
      5 H2         -4.6190   -4.2900    2.6930 hc        1 MOL      0.071603
      6 H3         -3.2550   -3.8530    3.7520 hc        1 MOL      0.071603
      7 N1         -2.7630   -4.9210    0.8340 n         1 MOL     -0.674066
      8 C3         -1.8740   -5.1460   -0.3480 c3        1 MOL      0.258998
      9 C4         -0.3430   -4.9170   -0.1160 c         1 MOL      0.543840
     10 O2          0.4090   -4.5390   -1.0400 o         1 MOL     -0.508787
     11 C5         -2.5140   -4.4060   -1.5730 c3        1 MOL     -0.464937
     12 C6         -3.9860   -4.6850   -1.8440 c         1 MOL      0.687720
     13 O3         -4.8410   -3.9240   -1.3530 o         1 MOL     -0.639424
     14 O4         -4.3290   -5.6550   -2.6030 o         1 MOL     -0.639424
     15 H4         -3.5360   -5.5340    1.0720 hn        1 MOL      0.327301
     16 H5         -1.9230   -6.1970   -0.6510 h1        1 MOL      0.033653
     17 H6         -1.9150   -4.7770   -2.4050 hc        1 MOL      0.139175
     18 H7         -2.3870   -3.3410   -1.3450 hc        1 MOL      0.139175
     19 N2          0.1370   -5.0250    1.1260 n         1 MOL     -0.474747
     20 C7          1.4880   -4.9820    1.5250 c3        1 MOL      0.179908
     21 C8          2.3670   -5.9070    0.6000 c         1 MOL      0.393601
     22 O5          1.8310   -6.8210    0.0550 o         1 MOL     -0.512971
     23 C9          1.8340   -5.1680    3.0310 c3        1 MOL      0.121211
     24 C10         1.5750   -6.5510    3.6400 c3        1 MOL      0.022581
     25 C11         1.0230   -4.0500    3.8540 c3        1 MOL     -0.416368
     26 C12         2.7340   -7.6080    3.4960 c3        1 MOL     -0.117472
     27 H8         -0.4440   -5.2200    1.9360 hn        1 MOL      0.225093
     28 H9          1.8060   -3.9710    1.2410 h1        1 MOL      0.074091
     29 H10         2.8850   -4.9510    3.2040 hc        1 MOL      0.053264
     30 H11         0.6710   -7.0430    3.2490 hc        1 MOL     -0.008949
     31 H12         1.4530   -6.3600    4.7040 hc        1 MOL     -0.008949
     32 H13         0.0580   -4.5250    4.0090 hc        1 MOL      0.086212
     33 H14         1.4860   -3.9260    4.8290 hc        1 MOL      0.086212
     34 H15         1.1060   -3.0990    3.3450 hc        1 MOL      0.086212
     35 H16         2.6830   -8.1360    2.5410 hc        1 MOL      0.029254
     36 H17         3.6960   -7.1430    3.6760 hc        1 MOL      0.029254
     37 H18         2.7080   -8.2840    4.3500 hc        1 MOL      0.029254
     38 N3          3.6840   -5.7590    0.3940 n         1 MOL     -0.566682
     39 C13         4.4510   -4.5470    0.4730 c3        1 MOL      0.342976
     40 C14         4.3230   -3.7100   -0.7900 c         1 MOL      0.382012
     41 O6          4.3510   -2.4720   -0.5870 o         1 MOL     -0.554635
     42 C15         5.9370   -4.9400    0.7820 c3        1 MOL     -0.333205
     43 C16         6.5570   -6.0190   -0.0770 c         1 MOL      0.790143
     44 O7          6.0300   -6.3820   -1.1140 o         1 MOL     -0.697775
     45 O8          7.6790   -6.5250    0.1440 o         1 MOL     -0.697775
     46 H19         4.0780   -6.4260   -0.2600 hn        1 MOL      0.298880
     47 H20         4.0790   -3.9480    1.3070 h1        1 MOL     -0.054158
     48 H21         5.9720   -5.3300    1.7880 hc        1 MOL      0.044221
     49 H22         6.5210   -4.0110    0.7520 hc        1 MOL      0.044221
     50 N4          4.0930   -4.3400   -1.9820 n         1 MOL     -0.104884
     51 C17         3.8130   -3.5790   -3.2100 c3        1 MOL     -0.294200
     52 C18         5.1250   -2.7940   -3.5440 c         1 MOL      0.424639
     53 O9          6.2040   -3.4790   -3.5810 o         1 MOL     -0.505829
     54 H23         4.0310   -5.3510   -1.9870 hn        1 MOL      0.263907
     55 H24         2.9580   -2.9010   -3.1940 h1        1 MOL      0.130917
     56 H25         3.5480   -4.3250   -3.9670 h1        1 MOL      0.130917
     57 N5          5.0690   -1.4310   -3.6460 n         1 MOL     -0.301487
     58 C19         6.1620   -0.5550   -3.8490 c3        1 MOL      0.048247
     59 C20         7.0260   -0.4620   -2.5810 c         1 MOL      0.320837
     60 O10         8.1930   -0.0500   -2.6680 o         1 MOL     -0.574618
     61 C21         5.7230    0.8500   -4.1890 c3        1 MOL     -0.172656
     62 C22         4.6070    1.2910   -3.2700 c         1 MOL      0.792027
     63 O11         3.4700    0.9560   -3.5330 o         1 MOL     -0.705363
     64 O12         4.8740    2.0380   -2.3210 o         1 MOL     -0.705363
     65 H26         4.1720   -0.9590   -3.5850 hn        1 MOL      0.220956
     66 H27         6.7890   -1.0020   -4.6270 h1        1 MOL      0.073683
     67 H28         5.3840    0.7870   -5.2240 hc        1 MOL      0.014040
     68 H29         6.5070    1.6020   -4.0940 hc        1 MOL      0.014040
     69 N6          6.5390   -0.8120   -1.4470 n         1 MOL      0.001987
     70 C23         7.2640   -0.7040   -0.1690 c3        1 MOL     -0.313677
     71 C24         7.5630    0.7120    0.2830 c         1 MOL      0.456492
     72 O13         8.3560    0.8590    1.1890 o         1 MOL     -0.582413
     73 H30         5.5870   -1.1350   -1.4250 hn        1 MOL      0.193676
     74 H31         8.1820   -1.2690   -0.2870 h1        1 MOL      0.154072
     75 H32         6.6650   -1.2070    0.6000 h1        1 MOL      0.154072
     76 N7          6.9560    1.7730   -0.2920 n         1 MOL      0.252556
     77 C25         7.1000    3.1880   -0.0670 c3        1 MOL     -0.108580
     78 C26         6.7390    3.6540    1.3750 c         1 MOL      0.570772
     79 O14         7.1320    4.7190    1.8500 o         1 MOL     -0.538031
     80 C27         8.4170    3.7550   -0.5800 c3        1 MOL      0.066383
     81 C28         8.8110    3.3910   -1.9900 c3        1 MOL     -0.187802
     82 C29         9.8880    4.3070   -2.6260 c         1 MOL      0.670467
     83 N8         10.5350    3.8250   -3.6820 n         1 MOL     -0.829508
     84 O15        10.1330    5.4460   -2.2450 o         1 MOL     -0.571873
     85 H33         6.3480    1.4470   -1.0300 hn        1 MOL     -0.083897
     86 H34         6.3670    3.6850   -0.7020 h1        1 MOL      0.107152
     87 H35         9.2150    3.5200    0.1140 hc        1 MOL     -0.003770
     88 H36         8.4050    4.8430   -0.6010 hc        1 MOL     -0.003770
     89 H37         8.0330    3.5420   -2.7370 hc        1 MOL      0.076196
     90 H38         9.1120    2.3480   -2.0070 hc        1 MOL      0.076196
     91 H39        10.5360    2.8410   -3.8930 hn        1 MOL      0.351190
     92 H40        11.1700    4.3660   -4.2530 hn        1 MOL      0.351190
     93 N9          5.8690    2.8630    2.0110 n         1 MOL     -0.350520
     94 C30         5.3590    2.9450    3.3620 c3        1 MOL     -0.282745
     95 C31         3.8810    3.0230    3.5240 c         1 MOL      0.724725
     96 O16         3.4320    3.6030    4.5630 o         1 MOL     -0.571465
     97 C32         5.8050    1.8110    4.2770 c3        1 MOL      0.163205
     98 C33         5.4550    0.4320    3.6040 c3        1 MOL     -0.191210
     99 C34         7.3280    1.9080    4.4540 c3        1 MOL     -0.191210
    100 H41         5.5140    2.1320    1.4060 hn        1 MOL      0.110657
    101 H42         5.7970    3.8540    3.7800 h1        1 MOL      0.145814
    102 H43         5.3260    1.7880    5.2600 hc        1 MOL      0.021426
    103 H44         5.4090   -0.3760    4.3250 hc        1 MOL      0.042408
    104 H45         4.4340    0.4500    3.2220 hc        1 MOL      0.042408
    105 H46         6.1990    0.1870    2.8450 hc        1 MOL      0.042408
    106 H47         7.7050    1.1100    5.0970 hc        1 MOL      0.042408
    107 H48         7.8130    1.9190    3.4760 hc        1 MOL      0.042408
    108 H49         7.5330    2.7410    5.1210 hc        1 MOL      0.042408
    109 N10         3.0150    2.5530    2.5420 n         1 MOL     -0.525605
    110 C35         1.5820    2.5990    2.4030 c3        1 MOL      0.126443
    111 C36         1.2060    3.1420    1.0300 c         1 MOL      0.594734
    112 O17         1.9530    3.7770    0.3460 o         1 MOL     -0.532390
    113 C37         1.0590    1.1440    2.6290 c3        1 MOL     -0.324139
    114 C38         1.3040    0.6200    4.0340 c         1 MOL      0.594125
    115 N11         2.2150   -0.3040    4.2830 n         1 MOL     -0.636900
    116 O18         0.8230    1.1640    4.9940 o         1 MOL     -0.549849
    117 H50         3.4030    2.0750    1.7430 hn        1 MOL      0.345330
    118 H51         1.2480    3.3270    3.1420 h1        1 MOL      0.094335
    119 H52         1.6720    0.4450    2.0560 hc        1 MOL      0.110561
    120 H53        -0.0120    1.0110    2.5100 hc        1 MOL      0.110561
    121 H54         2.6360   -0.8030    3.5170 hn        1 MOL      0.327464
    122 H55         2.5680   -0.5320    5.2050 hn        1 MOL      0.327464
    123 N12        -0.0770    3.0760    0.6340 n         1 MOL     -0.527618
    124 C39        -0.6300    3.7880   -0.4950 c3        1 MOL      0.078449
    125 C40        -2.0100    4.2470   -0.1780 c         1 MOL      0.639603
    126 O19        -2.7260    3.7910    0.7090 o         1 MOL     -0.502741
    127 C41        -0.6450    2.7190   -1.5940 c3        1 MOL      0.043097
    128 C42        -1.7860    1.7430   -1.7250 ca        1 MOL     -0.033912
    129 C43        -1.7550    0.5200   -0.9690 ca        1 MOL     -0.048758
    130 C44        -2.8450    1.9080   -2.6570 ca        1 MOL     -0.048758
    131 C45        -2.7890   -0.4390   -1.0220 ca        1 MOL     -0.290738
    132 C46        -3.9080    0.9320   -2.7120 ca        1 MOL     -0.290738
    133 C47        -3.8490   -0.2650   -1.9510 ca        1 MOL      0.272178
    134 O20        -4.8000   -1.1940   -2.1600 oh        1 MOL     -0.432028
    135 H56        -0.7380    2.7270    1.3120 hn        1 MOL      0.233039
    136 H57         0.0390    4.6240   -0.6770 h1        1 MOL      0.118064
    137 H58         0.2900    2.1660   -1.6090 hc        1 MOL      0.013391
    138 H59        -0.5660    3.3090   -2.5070 hc        1 MOL      0.013391
    139 H60        -1.0350    0.4670   -0.1660 ha        1 MOL      0.088459
    140 H61        -2.8890    2.7580   -3.3120 ha        1 MOL      0.088459
    141 H62        -2.8220   -1.3090   -0.3790 ha        1 MOL      0.157251
    142 H63        -4.7320    1.1000   -3.3910 ha        1 MOL      0.157251
    143 H64        -4.6760   -2.0340   -1.7150 ho        1 MOL      0.361467
    144 N13        -2.2990    5.3930   -0.7690 n         1 MOL     -0.723416
    145 C48        -3.6290    6.0140   -0.5420 c3        1 MOL      0.529827
    146 C49        -4.6490    5.8770   -1.7020 c         1 MOL      0.413297
    147 O21        -4.6910    6.5880   -2.6840 o         1 MOL     -0.530588
    148 C50        -3.3720    7.5330   -0.2590 c3        1 MOL     -0.192501
    149 C51        -4.6630    8.1420    0.3980 c3        1 MOL     -0.087228
    150 C52        -4.5410    9.5920    0.7080 c         1 MOL      0.681144
    151 O22        -4.4140    9.9960    1.8650 o         1 MOL     -0.660098
    152 O23        -4.7220   10.5380   -0.2080 o         1 MOL     -0.660098
    153 H65        -1.6810    5.7600   -1.4770 hn        1 MOL      0.323260
    154 H66        -4.0700    5.5700    0.3510 h1        1 MOL     -0.071044
    155 H67        -3.3670    7.9810   -1.2550 hc        1 MOL      0.044140
    156 H68        -2.4900    7.7030    0.3640 hc        1 MOL      0.044140
    157 H69        -4.8220    7.5980    1.3250 hc        1 MOL      0.016940
    158 H70        -5.5130    8.0130   -0.2770 hc        1 MOL      0.016940
    159 N14        -5.7040    5.1250   -1.4880 n         1 MOL     -0.317078
    160 C53        -5.8750    4.0140   -0.5180 c3        1 MOL     -0.199212
    161 C54        -6.2770    4.2750    0.9450 c         1 MOL      0.451239
    162 O24        -7.4010    4.6530    1.1720 o         1 MOL     -0.537028
    163 C55        -6.7650    2.9490   -1.1590 c3        1 MOL      0.304406
    164 C56        -7.0130    1.5980   -0.4970 c3        1 MOL     -0.163483
    165 C57        -8.0160    0.7150   -1.1650 c         1 MOL      0.608749
    166 O25        -8.4590    0.9850   -2.2860 o         1 MOL     -0.660854
    167 O26        -8.3820   -0.3270   -0.5900 o         1 MOL     -0.660854
    168 H71        -6.3860    5.2120   -2.2280 hn        1 MOL      0.245499
    169 H72        -4.9110    3.5300   -0.3810 h1        1 MOL     -0.000098
    170 H73        -6.4150    2.7370   -2.1660 hc        1 MOL     -0.031059
    171 H74        -7.7570    3.4140   -1.1670 hc        1 MOL     -0.031059
    172 H75        -7.3040    1.8080    0.5360 hc        1 MOL      0.002880
    173 H76        -6.0510    1.0940   -0.4620 hc        1 MOL      0.002880
    174 N15        -5.4950    3.8920    1.9550 n         1 MOL     -0.075628
    175 C58        -5.8490    3.9030    3.4200 c3        1 MOL     -0.084328
    176 H77        -6.4140    4.8060    3.6500 h1        1 MOL      0.050938
    177 H78        -6.4530    3.0270    3.6560 h1        1 MOL      0.050938
    178 H79        -4.9360    3.8860    4.0160 h1        1 MOL      0.050938
    179 H80        -4.5500    3.6520    1.6980 hn        1 MOL      0.140385
    180 Ca1        -9.1470   -2.7070    0.0770 Ca        1 MOL      1.608527
    181 O27        -7.1050   -4.4030   -0.0120 oh        1 MOL     -0.823479
    182 H81        -7.0610   -5.3060    0.2980 ho        1 MOL      0.384120
    183 H82        -6.2900   -4.2570   -0.4780 ho        1 MOL      0.384120
    184 O28        -9.5810   -4.8970    1.6710 oh        1 MOL     -0.823479
    185 H83       -10.3130   -4.6770    2.2460 ho        1 MOL      0.384120
    186 H84        -9.6020   -5.8410    1.6070 ho        1 MOL      0.384120
    187 O29       -11.8900   -3.5790    0.0290 oh        1 MOL     -0.823479
    188 H85       -12.7980   -3.3020    0.0270 ho        1 MOL      0.384120
    189 H86       -11.8410   -4.2650   -0.6420 ho        1 MOL      0.384120
    190 O30        -7.5040   -2.3240   -2.1170 oh        1 MOL     -0.823479
    191 H87        -6.8650   -2.9550   -2.4630 ho        1 MOL      0.384120
    192 H88        -7.0410   -1.4880   -2.1350 ho        1 MOL      0.384120
    193 O31        -7.5070   -2.0350    2.1020 oh        1 MOL     -0.823479
    194 H89        -7.8210   -1.2960    2.6300 ho        1 MOL      0.384120
    195 H90        -7.1240   -2.6390    2.7400 ho        1 MOL      0.384120
    196 O32        -9.3340   -4.7210   -1.8680 oh        1 MOL     -0.823479
    197 H91        -8.4430   -4.5990   -2.1810 ho        1 MOL      0.384120
    198 H92        -9.8600   -4.8060   -2.6610 ho        1 MOL      0.384120
    199 O33       -10.7790   -1.4310   -1.5520 oh        1 MOL     -0.823479
    200 H93       -10.2780   -0.6230   -1.4220 ho        1 MOL      0.384120
    201 H94       -11.2400   -1.2910   -2.3730 ho        1 MOL      0.384120
@<TRIPOS>BOND
     1    1    2 1   
     2    1    4 1   
     3    1    5 1   
     4    1    6 1   
     5    2    3 2   
     6    2    7 1   
     7    7    8 1   
     8    7   15 1   
     9    8    9 1   
    10    8   11 1   
    11    8   16 1   
    12    9   10 2   
    13    9   19 1   
    14   11   12 1   
    15   11   17 1   
    16   11   18 1   
    17   12   13 1   
    18   12   14 1   
    19   19   20 1   
    20   19   27 1   
    21   20   21 1   
    22   20   23 1   
    23   20   28 1   
    24   21   22 2   
    25   21   38 1   
    26   23   24 1   
    27   23   25 1   
    28   23   29 1   
    29   24   26 1   
    30   24   30 1   
    31   24   31 1   
    32   25   32 1   
    33   25   33 1   
    34   25   34 1   
    35   26   35 1   
    36   26   36 1   
    37   26   37 1   
    38   38   39 1   
    39   38   46 1   
    40   39   40 1   
    41   39   42 1   
    42   39   47 1   
    43   40   41 2   
    44   40   50 1   
    45   42   43 1   
    46   42   48 1   
    47   42   49 1   
    48   43   44 1   
    49   43   45 1   
    50   50   51 1   
    51   50   54 1   
    52   51   52 1   
    53   51   55 1   
    54   51   56 1   
    55   52   53 2   
    56   52   57 1   
    57   57   58 1   
    58   57   65 1   
    59   58   59 1   
    60   58   61 1   
    61   58   66 1   
    62   59   60 2   
    63   59   69 1   
    64   61   62 1   
    65   61   67 1   
    66   61   68 1   
    67   62   63 1   
    68   62   64 1   
    69   69   70 1   
    70   69   73 1   
    71   70   71 1   
    72   70   74 1   
    73   70   75 1   
    74   71   72 2   
    75   71   76 1   
    76   76   77 1   
    77   76   85 1   
    78   77   78 1   
    79   77   80 1   
    80   77   86 1   
    81   78   79 2   
    82   78   93 1   
    83   80   81 1   
    84   80   87 1   
    85   80   88 1   
    86   81   82 1   
    87   81   89 1   
    88   81   90 1   
    89   82   83 1   
    90   82   84 2   
    91   83   91 1   
    92   83   92 1   
    93   93   94 1   
    94   93  100 1   
    95   94   95 1   
    96   94   97 1   
    97   94  101 1   
    98   95   96 2   
    99   95  109 1   
   100   97   98 1   
   101   97   99 1   
   102   97  102 1   
   103   98  103 1   
   104   98  104 1   
   105   98  105 1   
   106   99  106 1   
   107   99  107 1   
   108   99  108 1   
   109  109  110 1   
   110  109  117 1   
   111  110  111 1   
   112  110  113 1   
   113  110  118 1   
   114  111  112 2   
   115  111  123 1   
   116  113  114 1   
   117  113  119 1   
   118  113  120 1   
   119  114  115 1   
   120  114  116 2   
   121  115  121 1   
   122  115  122 1   
   123  123  124 1   
   124  123  135 1   
   125  124  125 1   
   126  124  127 1   
   127  124  136 1   
   128  125  126 2   
   129  125  144 1   
   130  127  128 1   
   131  127  137 1   
   132  127  138 1   
   133  128  129 ar  
   134  128  130 ar  
   135  129  131 ar  
   136  129  139 1   
   137  130  132 ar  
   138  130  140 1   
   139  131  133 ar  
   140  131  141 1   
   141  132  133 ar  
   142  132  142 1   
   143  133  134 1   
   144  134  143 1   
   145  144  145 1   
   146  144  153 1   
   147  145  146 1   
   148  145  148 1   
   149  145  154 1   
   150  146  147 2   
   151  146  159 1   
   152  148  149 1   
   153  148  155 1   
   154  148  156 1   
   155  149  150 1   
   156  149  157 1   
   157  149  158 1   
   158  150  151 1   
   159  150  152 1   
   160  159  160 1   
   161  159  168 1   
   162  160  161 1   
   163  160  163 1   
   164  160  169 1   
   165  161  162 2   
   166  161  174 1   
   167  163  164 1   
   168  163  170 1   
   169  163  171 1   
   170  164  165 1   
   171  164  172 1   
   172  164  173 1   
   173  165  166 1   
   174  165  167 1   
   175  174  175 1   
   176  174  179 1   
   177  175  176 1   
   178  175  177 1   
   179  175  178 1   
   180  181  182 1   
   181  181  183 1   
   182  184  185 1   
   183  184  186 1   
   184  187  188 1   
   185  187  189 1   
   186  190  191 1   
   187  190  192 1   
   188  193  194 1   
   189  193  195 1   
   190  196  197 1   
   191  196  198 1   
   192  199  200 1   
   193  199  201 1   
@<TRIPOS>SUBSTRUCTURE
     1 MOL         1 TEMP              0 ****  ****    0 ROOT
