@<TRIPOS>MOLECULE
MOL
  184   179     1     0     0
SMALL
resp


@<TRIPOS>ATOM
      1 C1          5.6370    4.9660   -4.8700 c3        1 MOL     -0.347840
      2 C2          5.4350    3.9160   -3.8120 c         1 MOL      0.725432
      3 O1          4.4210    3.2650   -3.8440 o         1 MOL     -0.587971
      4 H1          6.0620    5.8610   -4.4170 hc        1 MOL      0.075604
      5 H2          6.3180    4.5890   -5.6330 hc        1 MOL      0.075604
      6 H3          4.6780    5.2120   -5.3270 hc        1 MOL      0.075604
      7 N1          6.2910    3.6250   -2.8860 n         1 MOL     -0.354312
      8 C3          7.7190    4.1560   -2.7480 c3        1 MOL     -0.057098
      9 C4          7.9470    4.4980   -1.2620 c         1 MOL      0.497729
     10 O2          7.0290    4.9640   -0.6240 o         1 MOL     -0.473260
     11 C5          8.7010    3.1370   -3.3060 c3        1 MOL     -0.148058
     12 C6          8.5660    1.7610   -2.6710 c         1 MOL      0.678865
     13 O3          7.9430    0.8530   -3.3170 o         1 MOL     -0.741755
     14 O4          9.1430    1.5100   -1.5590 o         1 MOL     -0.741755
     15 H4          5.9790    3.0100   -2.1540 hn        1 MOL      0.225337
     16 H5          7.9480    5.0990   -3.2350 h1        1 MOL      0.093854
     17 H6          9.7240    3.4830   -3.1520 hc        1 MOL      0.029351
     18 H7          8.5780    2.9760   -4.3780 hc        1 MOL      0.029351
     19 N2          9.1810    4.5010   -0.7610 n         1 MOL     -0.456567
     20 C7          9.7130    4.8090    0.5720 c3        1 MOL      0.234689
     21 C8          8.9860    3.8660    1.6030 c         1 MOL      0.380749
     22 O5          8.8970    4.2750    2.7930 o         1 MOL     -0.532877
     23 C9          9.5220    6.3380    0.8940 c3        1 MOL     -0.302643
     24 H8          9.9480    4.2080   -1.3480 hn        1 MOL      0.277938
     25 H9         10.7820    4.6410    0.6120 h1        1 MOL      0.021525
     26 H10         8.4660    6.6030    0.8410 hc        1 MOL      0.086397
     27 H11         9.8490    6.6080    1.9040 hc        1 MOL      0.086397
     28 H12        10.0710    6.8830    0.1220 hc        1 MOL      0.086397
     29 N3          8.5250    2.6780    1.2180 n         1 MOL     -0.329397
     30 C10         7.6460    1.8090    2.0330 c3        1 MOL      0.203059
     31 C11         8.1490    0.3150    2.1870 c         1 MOL      0.310862
     32 O6          8.6300   -0.2760    1.1880 o         1 MOL     -0.423018
     33 C12         6.1200    1.9650    1.7030 c3        1 MOL     -0.273135
     34 C13         5.7790    1.7400    0.1970 c         1 MOL      0.562038
     35 O7          4.7680    2.1550   -0.4020 o         1 MOL     -0.603387
     36 O8          6.5080    0.9010   -0.4230 o         1 MOL     -0.603387
     37 H13         8.7490    2.2810    0.3200 hn        1 MOL      0.219532
     38 H14         7.6620    2.2070    3.0460 h1        1 MOL      0.000675
     39 H15         5.9660    3.0240    1.8910 hc        1 MOL      0.106831
     40 H16         5.5040    1.3930    2.3980 hc        1 MOL      0.106831
     41 N4          8.0060   -0.2590    3.3960 n         1 MOL     -0.353112
     42 C14         8.6900   -1.4980    3.7360 c3        1 MOL     -0.130316
     43 C15         7.8490   -2.6210    3.0780 c         1 MOL      0.483575
     44 O9          8.3750   -3.4190    2.2780 o         1 MOL     -0.506901
     45 H17         7.5530    0.3090    4.0900 hn        1 MOL      0.292068
     46 H18         8.8140   -1.6350    4.8090 h1        1 MOL      0.117055
     47 H19         9.6500   -1.4480    3.2350 h1        1 MOL      0.117055
     48 N5          6.5220   -2.5650    3.3130 n         1 MOL     -0.350765
     49 C16         5.5250   -3.3500    2.5290 c3        1 MOL     -0.048996
     50 C17         4.2040   -2.5710    2.4680 c         1 MOL      0.726909
     51 O10         4.0250   -1.5260    3.0570 o         1 MOL     -0.536915
     52 C18         5.3080   -4.6960    3.3280 c3        1 MOL     -0.195897
     53 C19         6.4250   -5.5480    3.6510 c         1 MOL      0.655481
     54 N6          7.0510   -6.0920    2.6660 n         1 MOL     -0.754690
     55 O11         6.8890   -5.6110    4.7190 o         1 MOL     -0.574832
     56 H20         6.1620   -1.9530    4.0250 hn        1 MOL      0.259521
     57 H21         5.8930   -3.5200    1.5160 h1        1 MOL      0.076010
     58 H22         4.6110   -5.3290    2.7790 hc        1 MOL      0.064934
     59 H23         4.7860   -4.3790    4.2280 hc        1 MOL      0.064934
     60 H24         6.7510   -6.0580    1.7060 hn        1 MOL      0.347381
     61 H25         7.8530   -6.5500    3.0820 hn        1 MOL      0.347381
     62 N7          3.3020   -3.0440    1.6070 n         1 MOL     -0.592371
     63 C20         1.8550   -2.6330    1.5230 c3        1 MOL     -0.099678
     64 C21         0.9320   -3.7620    1.1720 c         1 MOL      0.703477
     65 O12         1.0920   -4.8410    1.5800 o         1 MOL     -0.566674
     66 H26         3.6390   -3.8070    1.0440 hn        1 MOL      0.313504
     67 H27         1.7460   -1.8120    0.8060 h1        1 MOL      0.118379
     68 H28         1.5240   -2.2140    2.4720 h1        1 MOL      0.118379
     69 N8         -0.1420   -3.5500    0.3400 n         1 MOL     -0.600270
     70 C22        -0.3760   -2.4170   -0.5920 c3        1 MOL     -0.114493
     71 C23        -1.8460   -2.1600   -0.7700 c         1 MOL      0.701722
     72 O13        -2.5990   -3.1140   -0.6840 o         1 MOL     -0.507029
     73 C24         0.1980   -2.7330   -1.9660 c3        1 MOL      0.458164
     74 C25         1.6810   -2.3900   -2.0460 c3        1 MOL     -0.171522
     75 O14        -0.1230   -4.1380   -2.2750 oh        1 MOL     -0.650987
     76 H29        -0.6450   -4.4150    0.1800 hn        1 MOL      0.340754
     77 H30        -0.0060   -1.4640   -0.2140 h1        1 MOL      0.080526
     78 H31        -0.2160   -2.1310   -2.7810 h1        1 MOL     -0.013713
     79 H32        -1.0670   -4.1960   -2.4080 ho        1 MOL      0.411262
     80 H33         2.2680   -2.9020   -1.2910 hc        1 MOL      0.036651
     81 H34         2.0860   -2.6230   -3.0360 hc        1 MOL      0.036651
     82 H35         1.8600   -1.3240   -1.9880 hc        1 MOL      0.036651
     83 N9         -2.1920   -0.8620   -1.0290 n         1 MOL     -0.663123
     84 C26        -3.6230   -0.5550   -1.4270 c3        1 MOL     -0.068119
     85 C27        -3.9360   -1.3600   -2.6320 c         1 MOL      0.428386
     86 O15        -3.2130   -1.2600   -3.6400 o         1 MOL     -0.559390
     87 C28        -3.8310    0.9850   -1.5740 c3        1 MOL      0.295879
     88 C29        -3.8720    1.6550   -0.1700 c3        1 MOL     -0.185666
     89 C30        -5.1540    1.2590   -2.3190 c3        1 MOL     -0.394504
     90 C31        -3.6640    3.2280   -0.2880 c3        1 MOL     -0.038767
     91 H36        -1.5070   -0.1410   -0.9320 hn        1 MOL      0.316365
     92 H37        -4.2440   -0.9630   -0.6300 h1        1 MOL      0.102183
     93 H38        -3.0370    1.3280   -2.2370 hc        1 MOL      0.020272
     94 H39        -3.0640    1.3370    0.4920 hc        1 MOL      0.082201
     95 H40        -4.8260    1.4100    0.3150 hc        1 MOL      0.082201
     96 H41        -5.9970    0.8090   -1.7850 hc        1 MOL      0.096023
     97 H42        -5.2590    2.3400   -2.3360 hc        1 MOL      0.096023
     98 H43        -5.0510    0.8930   -3.3390 hc        1 MOL      0.096023
     99 H44        -3.0470    3.2770   -1.1870 hc        1 MOL      0.008154
    100 H45        -4.6590    3.5700   -0.5860 hc        1 MOL      0.008154
    101 H46        -3.2510    3.7360    0.5780 hc        1 MOL      0.008154
    102 N10        -4.8670   -2.3290   -2.7580 n         1 MOL     -0.343738
    103 C32        -5.8930   -2.7740   -1.7050 c3        1 MOL      0.057370
    104 C33        -7.2250   -1.9410   -1.6520 c         1 MOL      0.567521
    105 O16        -7.5340   -1.1890   -2.5720 o         1 MOL     -0.532905
    106 C34        -6.2750   -4.2220   -2.0580 c3        1 MOL     -0.092819
    107 C35        -6.6240   -4.5490   -3.4820 c         1 MOL      0.762364
    108 O17        -7.7810   -4.8820   -3.8800 o         1 MOL     -0.732128
    109 O18        -5.6700   -4.5310   -4.2520 o         1 MOL     -0.732128
    110 H47        -4.8690   -2.7370   -3.6800 hn        1 MOL      0.303217
    111 H48        -5.4910   -2.7800   -0.6930 h1        1 MOL      0.042776
    112 H49        -7.0680   -4.5570   -1.3890 hc        1 MOL     -0.016441
    113 H50        -5.4120   -4.8650   -1.8840 hc        1 MOL     -0.016441
    114 N11        -8.1040   -2.2150   -0.6760 n         1 MOL     -0.676289
    115 C36        -9.2800   -1.2770   -0.4040 c3        1 MOL      0.501348
    116 C37        -9.7410   -1.2750    1.0600 c         1 MOL      0.168929
    117 O19        -9.7640   -2.4340    1.5530 o         1 MOL     -0.490869
    118 C38       -10.4790   -1.6160   -1.3550 c3        1 MOL     -0.305998
    119 C39       -11.5610   -0.5920   -1.3000 ca        1 MOL      0.134525
    120 C40       -12.7050   -0.7670   -0.4770 ca        1 MOL     -0.173846
    121 C41       -11.4000    0.6460   -1.8980 ca        1 MOL     -0.173846
    122 C42       -13.7030    0.2630   -0.3700 ca        1 MOL     -0.104505
    123 C43       -12.4410    1.6110   -1.9420 ca        1 MOL     -0.104505
    124 C44       -13.5680    1.4040   -1.1980 ca        1 MOL     -0.140035
    125 H51        -7.8740   -2.9150    0.0030 hn        1 MOL      0.362352
    126 H52        -8.9190   -0.2580   -0.5660 h1        1 MOL     -0.034574
    127 H53       -10.8090   -2.6060   -1.0430 hc        1 MOL      0.116570
    128 H54       -10.0120   -1.6660   -2.3340 hc        1 MOL      0.116570
    129 H55       -12.7270   -1.7190    0.0160 ha        1 MOL      0.117692
    130 H56       -10.4980    0.7870   -2.4830 ha        1 MOL      0.117692
    131 H57       -14.6070   -0.0120    0.1550 ha        1 MOL      0.101493
    132 H58       -12.3240    2.5230   -2.5080 ha        1 MOL      0.101493
    133 H59       -14.3950    2.0920   -1.2910 ha        1 MOL      0.095267
    134 N12       -10.2440   -0.1290    1.6390 n         1 MOL      0.091614
    135 C45       -10.0560    1.3060    1.3580 c3        1 MOL     -0.033508
    136 C46        -8.4830    1.7050    1.4770 c         1 MOL      0.518518
    137 O20        -7.5390    0.9690    1.2570 o         1 MOL     -0.503518
    138 C47       -11.0780    1.9900    2.2540 c3        1 MOL     -0.221257
    139 C48       -11.0540    1.1600    3.5620 c3        1 MOL      0.116453
    140 C49       -10.8840   -0.2650    2.9990 c3        1 MOL     -0.049087
    141 H60       -10.2910    1.4950    0.3140 h1        1 MOL      0.041783
    142 H61       -10.7640    3.0220    2.4320 hc        1 MOL      0.056127
    143 H62       -12.0020    1.9410    1.6790 hc        1 MOL      0.056127
    144 H63       -10.3130    1.4340    4.3080 hc        1 MOL      0.000435
    145 H64       -12.0230    1.2590    4.0560 hc        1 MOL      0.000435
    146 H65       -10.3400   -0.9250    3.6730 h1        1 MOL      0.037765
    147 H66       -11.9070   -0.6390    2.8950 h1        1 MOL      0.037765
    148 N13        -8.2100    2.9870    1.7600 n         1 MOL     -0.452986
    149 C50        -6.9200    3.6080    1.6420 c3        1 MOL      0.318128
    150 C51        -7.0340    5.0450    1.0940 c         1 MOL      0.419040
    151 O21        -6.4210    5.9420    1.5600 o         1 MOL     -0.520435
    152 C52        -6.1400    3.7390    2.9860 c3        1 MOL     -0.485597
    153 C53        -5.9380    2.3770    3.6760 c3        1 MOL     -0.003613
    154 C54        -4.9760    2.3460    4.8980 c         1 MOL      0.631344
    155 O22        -4.7750    3.4240    5.5230 o         1 MOL     -0.683243
    156 O23        -4.2700    1.3220    5.0570 o         1 MOL     -0.683243
    157 H67        -8.9920    3.6300    1.8580 hn        1 MOL      0.249972
    158 H68        -6.3520    2.9940    0.9420 h1        1 MOL      0.129610
    159 H69        -6.6510    4.3160    3.7490 hc        1 MOL      0.158697
    160 H70        -5.1390    4.1100    2.7540 hc        1 MOL      0.158697
    161 H71        -5.5480    1.6960    2.9280 hc        1 MOL     -0.008915
    162 H72        -6.8190    1.8030    3.9680 hc        1 MOL     -0.008915
    163 N14        -7.7970    5.3350   -0.0020 n         1 MOL     -0.474777
    164 C55        -8.3480    4.4400   -1.0760 c3        1 MOL     -0.008385
    165 H73        -8.2260    3.3980   -0.7790 h1        1 MOL      0.044602
    166 H74        -9.4070    4.6530   -1.2200 h1        1 MOL      0.044602
    167 H75        -7.8110    4.6170   -2.0090 h1        1 MOL      0.044602
    168 H76        -7.9160    6.3190   -0.1860 hn        1 MOL      0.297598
    169 Ca1         8.0400   -0.9880   -1.5490 Ca        1 MOL      1.765156
    170 O24         5.7200   -1.9070   -0.1720 oh        1 MOL     -0.832706
    171 H77         5.4350   -1.1750    0.3850 ho        1 MOL      0.400193
    172 H78         4.9090   -2.2150   -0.5780 ho        1 MOL      0.400193
    173 O25         8.9530   -2.3320   -3.7730 oh        1 MOL     -0.832706
    174 O26         5.8390   -1.6640   -2.8360 oh        1 MOL     -0.832706
    175 H79         9.7790   -2.3730   -4.2700 ho        1 MOL      0.400193
    176 H80         5.4670   -2.3010   -3.4340 ho        1 MOL      0.400193
    177 H81         8.4540   -3.0830   -4.0780 ho        1 MOL      0.400193
    178 H82         5.1480   -1.0020   -2.7210 ho        1 MOL      0.400193
    179 O27        10.6910   -1.0590   -1.2050 oh        1 MOL     -0.832706
    180 H83        11.3590   -1.7290   -1.0740 ho        1 MOL      0.400193
    181 H84        10.9990   -0.5580   -1.9540 ho        1 MOL      0.400193
    182 O28         8.5640   -3.5860   -1.0640 oh        1 MOL     -0.832706
    183 H85         7.8250   -4.1570   -1.2880 ho        1 MOL      0.400193
    184 H86         9.2310   -4.1820   -0.7330 ho        1 MOL      0.400193
@<TRIPOS>BOND
     1    1    2 1   
     2    1    4 1   
     3    1    5 1   
     4    1    6 1   
     5    2    3 2   
     6    2    7 1   
     7    7    8 1   
     8    7   15 1   
     9    8    9 1   
    10    8   11 1   
    11    8   16 1   
    12    9   10 2   
    13    9   19 1   
    14   11   12 1   
    15   11   17 1   
    16   11   18 1   
    17   12   13 1   
    18   12   14 1   
    19   19   20 1   
    20   19   24 1   
    21   20   21 1   
    22   20   23 1   
    23   20   25 1   
    24   21   22 2   
    25   21   29 1   
    26   23   26 1   
    27   23   27 1   
    28   23   28 1   
    29   29   30 1   
    30   29   37 1   
    31   30   31 1   
    32   30   33 1   
    33   30   38 1   
    34   31   32 2   
    35   31   41 1   
    36   33   34 1   
    37   33   39 1   
    38   33   40 1   
    39   34   35 1   
    40   34   36 1   
    41   41   42 1   
    42   41   45 1   
    43   42   43 1   
    44   42   46 1   
    45   42   47 1   
    46   43   44 2   
    47   43   48 1   
    48   48   49 1   
    49   48   56 1   
    50   49   50 1   
    51   49   52 1   
    52   49   57 1   
    53   50   51 2   
    54   50   62 1   
    55   52   53 1   
    56   52   58 1   
    57   52   59 1   
    58   53   54 1   
    59   53   55 2   
    60   54   60 1   
    61   54   61 1   
    62   62   63 1   
    63   62   66 1   
    64   63   64 1   
    65   63   67 1   
    66   63   68 1   
    67   64   65 2   
    68   64   69 1   
    69   69   70 1   
    70   69   76 1   
    71   70   71 1   
    72   70   73 1   
    73   70   77 1   
    74   71   72 2   
    75   71   83 1   
    76   73   74 1   
    77   73   75 1   
    78   73   78 1   
    79   74   80 1   
    80   74   81 1   
    81   74   82 1   
    82   75   79 1   
    83   83   84 1   
    84   83   91 1   
    85   84   85 1   
    86   84   87 1   
    87   84   92 1   
    88   85   86 2   
    89   85  102 1   
    90   87   88 1   
    91   87   89 1   
    92   87   93 1   
    93   88   90 1   
    94   88   94 1   
    95   88   95 1   
    96   89   96 1   
    97   89   97 1   
    98   89   98 1   
    99   90   99 1   
   100   90  100 1   
   101   90  101 1   
   102  102  103 1   
   103  102  110 1   
   104  103  104 1   
   105  103  106 1   
   106  103  111 1   
   107  104  105 2   
   108  104  114 1   
   109  106  107 1   
   110  106  112 1   
   111  106  113 1   
   112  107  108 1   
   113  107  109 1   
   114  114  115 1   
   115  114  125 1   
   116  115  116 1   
   117  115  118 1   
   118  115  126 1   
   119  116  117 2   
   120  116  134 1   
   121  118  119 1   
   122  118  127 1   
   123  118  128 1   
   124  119  120 ar  
   125  119  121 ar  
   126  120  122 ar  
   127  120  129 1   
   128  121  123 ar  
   129  121  130 1   
   130  122  124 ar  
   131  122  131 1   
   132  123  124 ar  
   133  123  132 1   
   134  124  133 1   
   135  134  135 1   
   136  134  140 1   
   137  135  136 1   
   138  135  138 1   
   139  135  141 1   
   140  136  137 2   
   141  136  148 1   
   142  138  139 1   
   143  138  142 1   
   144  138  143 1   
   145  139  140 1   
   146  139  144 1   
   147  139  145 1   
   148  140  146 1   
   149  140  147 1   
   150  148  149 1   
   151  148  157 1   
   152  149  150 1   
   153  149  152 1   
   154  149  158 1   
   155  150  151 2   
   156  150  163 1   
   157  152  153 1   
   158  152  159 1   
   159  152  160 1   
   160  153  154 1   
   161  153  161 1   
   162  153  162 1   
   163  154  155 1   
   164  154  156 1   
   165  163  164 1   
   166  163  168 1   
   167  164  165 1   
   168  164  166 1   
   169  164  167 1   
   170  170  171 1   
   171  170  172 1   
   172  173  175 1   
   173  173  177 1   
   174  174  176 1   
   175  174  178 1   
   176  179  180 1   
   177  179  181 1   
   178  182  183 1   
   179  182  184 1   
@<TRIPOS>SUBSTRUCTURE
     1 MOL         1 TEMP              0 ****  ****    0 ROOT
