@<TRIPOS>MOLECULE
MOL
  182   178     1     0     0
SMALL
resp


@<TRIPOS>ATOM
      1 C1          0.2000   -3.3370    6.3470 c3        1 MOL     -0.399552
      2 C2          0.5120   -3.2990    4.8570 c         1 MOL      0.758636
      3 O1         -0.3930   -3.6040    4.0700 o         1 MOL     -0.576565
      4 H1         -0.4100   -2.4730    6.6120 hc        1 MOL      0.115846
      5 H2         -0.3450   -4.2510    6.5820 hc        1 MOL      0.115846
      6 H3          1.1310   -3.3120    6.9150 hc        1 MOL      0.115846
      7 N1          1.7990   -3.1520    4.4180 n         1 MOL     -0.597072
      8 C3          2.0760   -2.9940    2.9730 c3        1 MOL     -0.054820
      9 C4          2.0790   -4.2820    2.2360 c         1 MOL      0.598203
     10 O2          2.5420   -5.3250    2.7480 o         1 MOL     -0.568002
     11 C5          3.3610   -2.1770    2.7720 c3        1 MOL     -0.220267
     12 C6          3.2910   -1.4050    1.4340 c         1 MOL      0.392576
     13 O3          4.0310   -0.4330    1.3370 o         1 MOL     -0.618141
     14 O4          2.4580   -1.6490    0.6090 o         1 MOL     -0.618141
     15 H4          2.5930   -3.0920    5.0400 hn        1 MOL      0.338803
     16 H5          1.2630   -2.3980    2.5700 h1        1 MOL      0.115905
     17 H6          4.2150   -2.8400    2.8990 hc        1 MOL      0.123240
     18 H7          3.3250   -1.4400    3.5690 hc        1 MOL      0.123240
     19 N2          1.7630   -4.2530    0.9800 n         1 MOL     -0.417030
     20 C7          1.7280   -5.3310    0.0340 c3        1 MOL      0.029320
     21 C8          2.9640   -5.4620   -0.8190 c         1 MOL      0.550716
     22 O5          3.3380   -6.5520   -1.0880 o         1 MOL     -0.592989
     23 C9          0.4650   -5.1640   -0.7550 c3        1 MOL      0.144066
     24 C10         0.2280   -6.3710   -1.5960 c3        1 MOL     -0.197549
     25 C11        -1.1330   -6.5160   -2.1050 c3        1 MOL      0.090756
     26 C12        -1.2530   -7.7130   -3.0060 c3        1 MOL      0.050284
     27 N3         -2.5650   -7.9720   -3.6180 n4        1 MOL     -0.242306
     28 H8          1.6430   -3.3250    0.6040 hn        1 MOL      0.321824
     29 H9          1.6890   -6.2820    0.5670 h1        1 MOL      0.085364
     30 H10         0.4140   -4.2940   -1.4060 hc        1 MOL     -0.017997
     31 H11        -0.3690   -5.0060   -0.0640 hc        1 MOL     -0.017997
     32 H12         0.2430   -7.0960   -0.7830 hc        1 MOL      0.066403
     33 H13         0.9730   -6.4860   -2.3950 hc        1 MOL      0.066403
     34 H14        -1.4210   -5.6460   -2.6990 hc        1 MOL      0.009680
     35 H15        -1.8620   -6.6740   -1.2970 hc        1 MOL      0.009680
     36 H16        -0.9180   -8.5650   -2.4160 hx        1 MOL      0.058676
     37 H17        -0.5990   -7.5220   -3.8530 hx        1 MOL      0.058676
     38 H18        -2.5300   -8.5130   -4.4740 hn        1 MOL      0.271980
     39 H19        -3.0700   -8.5280   -2.9460 hn        1 MOL      0.271980
     40 H20        -3.0350   -7.0840   -3.7060 hn        1 MOL      0.271980
     41 N4          3.5940   -4.3610   -1.1540 n         1 MOL     -0.283700
     42 C13         4.8560   -4.3150   -1.8290 c3        1 MOL      0.120571
     43 C14         6.0260   -3.8100   -0.9280 c         1 MOL      0.421255
     44 O6          7.1710   -3.8440   -1.3510 o         1 MOL     -0.498000
     45 C15         4.7350   -3.4230   -3.0560 c3        1 MOL     -0.486044
     46 C16         4.4250   -1.9660   -2.9450 c         1 MOL      0.980909
     47 O7          4.3400   -1.4290   -1.8190 o         1 MOL     -0.765783
     48 O8          4.1060   -1.3870   -3.9900 o         1 MOL     -0.765783
     49 H21         3.2210   -3.4960   -0.7850 hn        1 MOL      0.120877
     50 H22         5.3380   -5.2290   -2.1630 h1        1 MOL      0.108934
     51 H23         4.0750   -3.9070   -3.7870 hc        1 MOL      0.123439
     52 H24         5.7380   -3.3980   -3.4770 hc        1 MOL      0.123439
     53 N5          5.7870   -3.4250    0.3670 n         1 MOL     -0.226073
     54 C17         6.7740   -2.7480    1.1090 c3        1 MOL     -0.155478
     55 C18         7.2460   -1.2930    0.8580 c         1 MOL      0.429462
     56 O9          8.1450   -0.7410    1.5670 o         1 MOL     -0.556132
     57 H25         4.8640   -3.4740    0.7640 hn        1 MOL      0.184010
     58 H26         7.6740   -3.3500    1.1220 h1        1 MOL      0.103640
     59 H27         6.3460   -2.7660    2.1120 h1        1 MOL      0.103640
     60 N6          6.6590   -0.5030   -0.0560 n         1 MOL     -0.040950
     61 C19         7.1490    0.7880   -0.6240 c3        1 MOL     -0.085098
     62 C20         6.0770    1.8800   -0.8390 c         1 MOL      0.614008
     63 O10         4.8590    1.5890   -0.8610 o         1 MOL     -0.576688
     64 C21         7.8860    0.3520   -1.8680 c3        1 MOL     -0.430775
     65 C22         8.7510    1.4690   -2.3470 c         1 MOL      0.833615
     66 N7          9.7910    1.8840   -1.6650 n         1 MOL     -0.905606
     67 O11         8.6270    2.0310   -3.3760 o         1 MOL     -0.610553
     68 H28         5.9380   -0.9690   -0.5830 hn        1 MOL      0.207483
     69 H29         7.8510    1.2300    0.0750 h1        1 MOL      0.056862
     70 H30         7.1440    0.0620   -2.6100 hc        1 MOL      0.136249
     71 H31         8.6410   -0.3890   -1.6540 hc        1 MOL      0.136249
     72 H32        10.1180    1.3820   -0.8590 hn        1 MOL      0.391040
     73 H33        10.3820    2.5350   -2.1640 hn        1 MOL      0.391040
     74 N8          6.5000    3.1280   -0.9800 n         1 MOL     -0.334140
     75 C23         5.7750    4.3380   -1.1220 c3        1 MOL     -0.228998
     76 C24         4.6930    4.5240   -0.0100 c         1 MOL      0.582846
     77 O12         4.9880    4.4930    1.1990 o         1 MOL     -0.516752
     78 H34         7.4790    3.3430   -1.0960 hn        1 MOL      0.306773
     79 H35         5.2720    4.3220   -2.0950 h1        1 MOL      0.117993
     80 H36         6.4750    5.1680   -1.0270 h1        1 MOL      0.117993
     81 N9          3.4380    4.6440   -0.3730 n         1 MOL     -0.525529
     82 C25         2.2710    4.6750    0.5660 c3        1 MOL      0.155071
     83 C26         1.8520    3.2950    1.0700 c         1 MOL      0.531854
     84 O13         2.4580    2.3110    0.6560 o         1 MOL     -0.445906
     85 C27         1.1640    5.4890   -0.0860 c3        1 MOL     -0.350339
     86 C28         1.4980    6.9910   -0.3080 ca        1 MOL      0.220487
     87 C29         1.1740    7.9220    0.7000 ca        1 MOL     -0.228345
     88 C30         1.9490    7.4570   -1.5710 ca        1 MOL     -0.228345
     89 C31         1.4800    9.3010    0.5850 ca        1 MOL     -0.180204
     90 C32         2.1690    8.8080   -1.7420 ca        1 MOL     -0.180204
     91 C33         1.9230    9.7200   -0.6920 ca        1 MOL      0.249183
     92 O14         2.3440   11.0370   -0.8850 oh        1 MOL     -0.484895
     93 H37         3.3120    4.8060   -1.3630 hn        1 MOL      0.313970
     94 H38         2.6110    5.2420    1.4360 h1        1 MOL      0.083019
     95 H39         0.2680    5.3470    0.5050 hc        1 MOL      0.093193
     96 H40         0.9500    5.0090   -1.0430 hc        1 MOL      0.093193
     97 H41         0.5640    7.5480    1.5080 ha        1 MOL      0.138130
     98 H42         1.9980    6.7560   -2.3860 ha        1 MOL      0.138130
     99 H43         1.3180   10.0470    1.3510 ha        1 MOL      0.151645
    100 H44         2.4960    9.1850   -2.6900 ha        1 MOL      0.151645
    101 H45         2.1250   11.6210   -0.1640 ho        1 MOL      0.375359
    102 N10         0.7630    3.1880    1.9240 n         1 MOL     -0.614664
    103 C34         0.1960    1.9350    2.5180 c3        1 MOL      0.021968
    104 C35        -0.2400    0.9100    1.4910 c         1 MOL      0.454070
    105 O15         0.5100    0.5520    0.5420 o         1 MOL     -0.354729
    106 C36         1.1430    1.3120    3.5890 c3        1 MOL      0.315178
    107 C37         0.4450    0.2330    4.4880 c3        1 MOL     -0.207363
    108 C38         1.7880    2.3020    4.5420 c3        1 MOL     -0.191482
    109 C39        -0.7210    0.5840    5.4210 c3        1 MOL     -0.339431
    110 H46         0.3190    4.0490    2.2060 hn        1 MOL      0.338013
    111 H47        -0.7020    2.1790    3.0680 h1        1 MOL      0.070805
    112 H48         1.9110    0.8820    2.9390 hc        1 MOL      0.016505
    113 H49         1.1600   -0.2500    5.1490 hc        1 MOL      0.068350
    114 H50         0.0230   -0.5330    3.8240 hc        1 MOL      0.068350
    115 H51         2.2420    3.1600    4.0480 hc        1 MOL      0.045353
    116 H52         1.1270    2.7300    5.2960 hc        1 MOL      0.045353
    117 H53         2.6310    1.7780    4.9990 hc        1 MOL      0.045353
    118 H54        -1.4630    1.2010    4.9200 hc        1 MOL      0.097192
    119 H55        -1.0550   -0.2650    6.0250 hc        1 MOL      0.097192
    120 H56        -0.3060    1.2020    6.2220 hc        1 MOL      0.097192
    121 N11        -1.5070    0.4120    1.5790 n         1 MOL     -0.547873
    122 C40        -2.0170   -0.6530    0.7220 c3        1 MOL     -0.081304
    123 C41        -3.4380   -0.6040    0.1670 c         1 MOL      0.711694
    124 O16        -3.7280   -1.3400   -0.7810 o         1 MOL     -0.577565
    125 C42        -1.7390   -1.9750    1.4160 c3        1 MOL      0.649012
    126 O17        -2.2770   -2.0290    2.7440 oh        1 MOL     -0.678921
    127 H57        -2.1400    0.6870    2.3170 hn        1 MOL      0.331384
    128 H58        -1.4540   -0.5990   -0.2180 h1        1 MOL      0.038923
    129 H59        -0.6750   -2.1930    1.4370 h1        1 MOL     -0.160504
    130 H60        -2.2560   -2.6380    0.7260 h1        1 MOL     -0.160504
    131 H61        -1.6940   -2.5780    3.2610 ho        1 MOL      0.389206
    132 N12        -4.3820    0.1610    0.6480 n         1 MOL     -0.534856
    133 C43        -5.8390    0.1380    0.2630 c3        1 MOL      0.091303
    134 C44        -6.1180    0.7930   -1.1510 c         1 MOL      0.574682
    135 O18        -5.2310    1.4430   -1.7030 o         1 MOL     -0.570107
    136 C45        -6.6060    0.8010    1.3960 c3        1 MOL     -0.220650
    137 H62        -4.1170    0.9150    1.2780 hn        1 MOL      0.278182
    138 H63        -6.1130   -0.9120    0.1900 h1        1 MOL      0.110918
    139 H64        -6.2310    0.2550    2.2580 hc        1 MOL      0.066322
    140 H65        -6.2600    1.8090    1.6420 hc        1 MOL      0.066322
    141 H66        -7.6780    0.7130    1.2670 hc        1 MOL      0.066322
    142 N13        -7.2020    0.4630   -1.8690 n         1 MOL     -0.539621
    143 C46        -8.3060   -0.4600   -1.5850 c3        1 MOL      0.258437
    144 C47        -9.6490   -0.0230   -2.1890 c         1 MOL      0.293521
    145 O19        -9.8050    0.6040   -3.2460 o         1 MOL     -0.507167
    146 C48        -7.8400   -1.7860   -2.2510 c3        1 MOL     -0.158338
    147 H67        -7.1960    0.7860   -2.8320 hn        1 MOL      0.317295
    148 H68        -8.4130   -0.6120   -0.5190 h1        1 MOL      0.011395
    149 H69        -8.4850   -2.5950   -1.9150 hc        1 MOL      0.041395
    150 H70        -8.0410   -1.7680   -3.3230 hc        1 MOL      0.041395
    151 H71        -6.8070   -2.0180   -2.0150 hc        1 MOL      0.041395
    152 N14       -10.7690   -0.2110   -1.5070 n         1 MOL     -0.166386
    153 C49       -10.9800   -0.5040   -0.0710 c3        1 MOL     -0.440090
    154 C50       -10.3580    0.5820    0.7990 c         1 MOL      0.731933
    155 O20       -10.0430    0.2710    1.9690 o         1 MOL     -0.594920
    156 C51       -12.4670   -0.6900    0.3480 c3        1 MOL      0.051414
    157 C52       -13.3100    0.5200    0.2140 c3        1 MOL     -0.155954
    158 C53       -13.2670    1.1250   -1.1850 c         1 MOL      0.663326
    159 O21       -12.5870    2.1670   -1.3800 o         1 MOL     -0.648808
    160 O22       -13.5340    0.4100   -2.1190 o         1 MOL     -0.648808
    161 H72       -11.5960   -0.0000   -2.0570 hn        1 MOL      0.287242
    162 H73       -10.5200   -1.4740    0.1190 h1        1 MOL      0.128139
    163 H74       -12.4270   -0.9740    1.3990 hc        1 MOL      0.043149
    164 H75       -12.9560   -1.5580   -0.0980 hc        1 MOL      0.043149
    165 H76       -12.9530    1.2480    0.9370 hc        1 MOL      0.015074
    166 H77       -14.3330    0.2860    0.5040 hc        1 MOL      0.015074
    167 N15       -10.2700    1.8580    0.3240 n         1 MOL     -0.289559
    168 C54        -9.6120    2.9860    1.0660 c3        1 MOL     -0.292763
    169 H78       -10.0850    3.1030    2.0410 h1        1 MOL      0.117192
    170 H79        -8.5530    2.7650    1.2000 h1        1 MOL      0.117192
    171 H80        -9.7220    3.9090    0.4970 h1        1 MOL      0.117192
    172 H81       -10.8010    2.1410   -0.4890 hn        1 MOL      0.271897
    173 Ca1         2.6230    0.3560   -1.0070 Ca        1 MOL      1.688673
    174 O23         0.7870    2.0050   -1.9390 oh        1 MOL     -0.900900
    175 H82         0.0870    2.4440   -1.4460 ho        1 MOL      0.433342
    176 H83         0.5880    2.1890   -2.8580 ho        1 MOL      0.433342
    177 O24         1.1730   -1.3480   -2.3480 oh        1 MOL     -0.900900
    178 H84         0.2350   -1.4950   -2.2550 ho        1 MOL      0.433342
    179 H85         1.3270   -1.4070   -3.3000 ho        1 MOL      0.433342
    180 O25         3.4600    1.0470   -3.4930 oh        1 MOL     -0.900900
    181 H86         3.6510    1.5320   -4.3010 ho        1 MOL      0.433342
    182 H87         3.7060    0.1480   -3.6840 ho        1 MOL      0.433342
@<TRIPOS>BOND
     1    1    2 1   
     2    1    4 1   
     3    1    5 1   
     4    1    6 1   
     5    2    3 2   
     6    2    7 1   
     7    7    8 1   
     8    7   15 1   
     9    8    9 1   
    10    8   11 1   
    11    8   16 1   
    12    9   10 2   
    13    9   19 1   
    14   11   12 1   
    15   11   17 1   
    16   11   18 1   
    17   12   13 1   
    18   12   14 1   
    19   19   20 1   
    20   19   28 1   
    21   20   21 1   
    22   20   23 1   
    23   20   29 1   
    24   21   22 2   
    25   21   41 1   
    26   23   24 1   
    27   23   30 1   
    28   23   31 1   
    29   24   25 1   
    30   24   32 1   
    31   24   33 1   
    32   25   26 1   
    33   25   34 1   
    34   25   35 1   
    35   26   27 1   
    36   26   36 1   
    37   26   37 1   
    38   27   38 1   
    39   27   39 1   
    40   27   40 1   
    41   41   42 1   
    42   41   49 1   
    43   42   43 1   
    44   42   45 1   
    45   42   50 1   
    46   43   44 2   
    47   43   53 1   
    48   45   46 1   
    49   45   51 1   
    50   45   52 1   
    51   46   47 1   
    52   46   48 1   
    53   53   54 1   
    54   53   57 1   
    55   54   55 1   
    56   54   58 1   
    57   54   59 1   
    58   55   56 2   
    59   55   60 1   
    60   60   61 1   
    61   60   68 1   
    62   61   62 1   
    63   61   64 1   
    64   61   69 1   
    65   62   63 2   
    66   62   74 1   
    67   64   65 1   
    68   64   70 1   
    69   64   71 1   
    70   65   66 1   
    71   65   67 2   
    72   66   72 1   
    73   66   73 1   
    74   74   75 1   
    75   74   78 1   
    76   75   76 1   
    77   75   79 1   
    78   75   80 1   
    79   76   77 2   
    80   76   81 1   
    81   81   82 1   
    82   81   93 1   
    83   82   83 1   
    84   82   85 1   
    85   82   94 1   
    86   83   84 2   
    87   83  102 1   
    88   85   86 1   
    89   85   95 1   
    90   85   96 1   
    91   86   87 ar  
    92   86   88 ar  
    93   87   89 ar  
    94   87   97 1   
    95   88   90 ar  
    96   88   98 1   
    97   89   91 ar  
    98   89   99 1   
    99   90   91 ar  
   100   90  100 1   
   101   91   92 1   
   102   92  101 1   
   103  102  103 1   
   104  102  110 1   
   105  103  104 1   
   106  103  106 1   
   107  103  111 1   
   108  104  105 2   
   109  104  121 1   
   110  106  107 1   
   111  106  108 1   
   112  106  112 1   
   113  107  109 1   
   114  107  113 1   
   115  107  114 1   
   116  108  115 1   
   117  108  116 1   
   118  108  117 1   
   119  109  118 1   
   120  109  119 1   
   121  109  120 1   
   122  121  122 1   
   123  121  127 1   
   124  122  123 1   
   125  122  125 1   
   126  122  128 1   
   127  123  124 2   
   128  123  132 1   
   129  125  126 1   
   130  125  129 1   
   131  125  130 1   
   132  126  131 1   
   133  132  133 1   
   134  132  137 1   
   135  133  134 1   
   136  133  136 1   
   137  133  138 1   
   138  134  135 2   
   139  134  142 1   
   140  136  139 1   
   141  136  140 1   
   142  136  141 1   
   143  142  143 1   
   144  142  147 1   
   145  143  144 1   
   146  143  146 1   
   147  143  148 1   
   148  144  145 2   
   149  144  152 1   
   150  146  149 1   
   151  146  150 1   
   152  146  151 1   
   153  152  153 1   
   154  152  161 1   
   155  153  154 1   
   156  153  156 1   
   157  153  162 1   
   158  154  155 2   
   159  154  167 1   
   160  156  157 1   
   161  156  163 1   
   162  156  164 1   
   163  157  158 1   
   164  157  165 1   
   165  157  166 1   
   166  158  159 1   
   167  158  160 1   
   168  167  168 1   
   169  167  172 1   
   170  168  169 1   
   171  168  170 1   
   172  168  171 1   
   173  174  175 1   
   174  174  176 1   
   175  177  178 1   
   176  177  179 1   
   177  180  181 1   
   178  180  182 1   
@<TRIPOS>SUBSTRUCTURE
     1 MOL         1 TEMP              0 ****  ****    0 ROOT
