@<TRIPOS>MOLECULE
MOL
  198   191     1     0     0
SMALL
resp


@<TRIPOS>ATOM
      1 C1         -3.0410    5.6880    1.1420 c3        1 MOL     -0.394110
      2 C2         -4.5540    5.5880    0.8930 c         1 MOL      0.683958
      3 O1         -5.0630    6.4390    0.1440 o         1 MOL     -0.572986
      4 H1         -2.8260    5.4220    2.1770 hc        1 MOL      0.110782
      5 H2         -2.5170    5.0030    0.4750 hc        1 MOL      0.110782
      6 H3         -2.7080    6.7080    0.9530 hc        1 MOL      0.110782
      7 N1         -5.3480    4.7650    1.5850 n         1 MOL     -0.727643
      8 C3         -6.8690    4.5450    1.3940 c3        1 MOL      0.499439
      9 C4         -7.2800    3.8210    0.1180 c         1 MOL      0.404052
     10 O2         -6.4700    3.7930   -0.8330 o         1 MOL     -0.431838
     11 C5         -7.7360    5.7710    1.7340 c3        1 MOL     -0.325422
     12 C6         -9.1880    5.3410    1.9500 c         1 MOL      0.752651
     13 O3         -9.4380    4.4950    2.8190 o         1 MOL     -0.688895
     14 O4        -10.0320    6.0360    1.3670 o         1 MOL     -0.688895
     15 H4         -4.7920    4.3260    2.3210 hn        1 MOL      0.336780
     16 H5         -7.2020    3.8600    2.1650 h1        1 MOL     -0.040415
     17 H6         -7.6410    6.5390    0.9750 hc        1 MOL      0.077225
     18 H7         -7.4240    6.1500    2.7000 hc        1 MOL      0.077225
     19 N2         -8.4500    3.0890    0.1000 n         1 MOL     -0.514442
     20 C7         -8.9660    2.2290   -0.9900 c3        1 MOL      0.207308
     21 C8         -8.1340    0.9980   -1.3800 c         1 MOL      0.458961
     22 O5         -8.6860   -0.0940   -1.6040 o         1 MOL     -0.554178
     23 C9         -9.1770    2.9990   -2.3540 c3        1 MOL     -0.339893
     24 C10       -10.0370    4.2850   -2.0940 c3        1 MOL      0.264452
     25 C11       -11.3060    4.2760   -1.2170 c3        1 MOL     -0.087987
     26 C12       -12.1590    5.5760   -1.4470 c3        1 MOL     -0.208801
     27 N3        -11.6020    6.7540   -0.7900 n4        1 MOL     -0.102465
     28 H8         -9.0000    2.9480    0.9310 hn        1 MOL      0.323763
     29 H9         -9.9320    1.8180   -0.6990 h1        1 MOL      0.037260
     30 H10        -9.7170    2.4480   -3.1350 hc        1 MOL      0.113170
     31 H11        -8.2070    3.3540   -2.7150 hc        1 MOL      0.113170
     32 H12       -10.4660    4.6620   -3.0280 hc        1 MOL     -0.061543
     33 H13        -9.3280    5.0230   -1.7180 hc        1 MOL     -0.061543
     34 H14       -10.9450    4.1820   -0.1970 hc        1 MOL      0.047475
     35 H15       -11.8750    3.4210   -1.6080 hc        1 MOL      0.047475
     36 H16       -13.1010    5.3580   -0.9420 hx        1 MOL      0.132745
     37 H17       -12.3180    5.6730   -2.5210 hx        1 MOL      0.132745
     38 H18       -12.2420    7.4450   -0.4370 hn        1 MOL      0.250306
     39 H19       -11.0260    6.4900   -0.0020 hn        1 MOL      0.250306
     40 H20       -10.9110    7.2130   -1.3480 hn        1 MOL      0.250306
     41 N4         -6.7870    1.1500   -1.5090 n         1 MOL     -0.443069
     42 C13        -5.8720    0.0660   -1.4010 c3        1 MOL      0.220125
     43 C14        -5.5590   -0.2670    0.0870 c         1 MOL      0.488568
     44 O6         -5.1230    0.5800    0.8250 o         1 MOL     -0.551227
     45 C15        -4.6230    0.3810   -2.2740 c3        1 MOL     -0.170464
     46 C16        -3.6910   -0.7950   -2.5980 c         1 MOL      0.555188
     47 O7         -4.1480   -1.9780   -2.4270 o         1 MOL     -0.691634
     48 O8         -2.5430   -0.5900   -3.1010 o         1 MOL     -0.691634
     49 H21        -6.4290    2.0790   -1.3430 hn        1 MOL      0.213749
     50 H22        -6.2900   -0.8150   -1.8830 h1        1 MOL      0.051265
     51 H23        -3.9830    1.1330   -1.8230 hc        1 MOL      0.082624
     52 H24        -4.9700    0.7930   -3.2200 hc        1 MOL      0.082624
     53 N5         -5.6450   -1.5210    0.5860 n         1 MOL     -0.316655
     54 C17        -6.1740   -2.7330   -0.0790 c3        1 MOL     -0.015794
     55 C18        -5.5360   -4.0610    0.3490 c         1 MOL      0.523266
     56 O9         -5.4950   -4.3830    1.5640 o         1 MOL     -0.548340
     57 H25        -5.3570   -1.6430    1.5450 hn        1 MOL      0.222083
     58 H26        -6.0020   -2.6570   -1.1540 h1        1 MOL      0.046044
     59 H27        -7.2530   -2.7580    0.1010 h1        1 MOL      0.046044
     60 N6         -5.0620   -4.8930   -0.5970 n         1 MOL     -0.372709
     61 C19        -4.1800   -6.0070   -0.2770 c3        1 MOL      0.141935
     62 C20        -2.7720   -5.6500    0.1140 c         1 MOL      0.450147
     63 O10        -2.2350   -4.6860   -0.4760 o         1 MOL     -0.710107
     64 C21        -4.1680   -7.1120   -1.3800 c3        1 MOL     -0.279953
     65 C22        -3.9090   -6.6710   -2.8050 c         1 MOL      0.726451
     66 O11        -3.9710   -7.4970   -3.7720 o         1 MOL     -0.701213
     67 O12        -3.6650   -5.5050   -3.0730 o         1 MOL     -0.701213
     68 H28        -5.0690   -4.5520   -1.5500 hn        1 MOL      0.251638
     69 H29        -4.6790   -6.4510    0.5900 h1        1 MOL      0.045209
     70 H30        -5.1380   -7.5740   -1.2140 hc        1 MOL      0.070581
     71 H31        -3.4040   -7.8710   -1.2090 hc        1 MOL      0.070581
     72 N7         -2.0980   -6.3530    1.0400 n         1 MOL     -0.271426
     73 C23        -0.6960   -6.1150    1.4660 c3        1 MOL      0.018720
     74 C24        -0.4060   -5.0080    2.4110 c         1 MOL      0.682426
     75 O13         0.5720   -5.1660    3.0860 o         1 MOL     -0.575358
     76 H32        -2.6620   -7.0980    1.4270 hn        1 MOL      0.236814
     77 H33        -0.0810   -5.9450    0.5880 h1        1 MOL      0.042080
     78 H34        -0.3930   -7.0570    1.9260 h1        1 MOL      0.042080
     79 N8         -1.1430   -3.9020    2.3140 n         1 MOL     -0.655667
     80 C25        -0.9750   -2.8490    3.3390 c3        1 MOL     -0.036781
     81 C26        -0.7530   -1.4500    2.7500 c         1 MOL      0.640712
     82 O14        -1.1470   -1.2500    1.6150 o         1 MOL     -0.545186
     83 C27        -2.2050   -2.8210    4.2690 c3        1 MOL      0.187693
     84 C28        -3.4860   -2.2780    3.6540 c3        1 MOL     -0.193971
     85 O15        -2.5160   -4.1690    4.7570 oh        1 MOL     -0.564774
     86 H35        -1.7820   -3.7200    1.5490 hn        1 MOL      0.409156
     87 H36        -0.0840   -3.0710    3.9320 h1        1 MOL      0.094926
     88 H37        -1.9600   -2.2360    5.1540 h1        1 MOL      0.011402
     89 H38        -1.8880   -4.2990    5.4630 ho        1 MOL      0.385626
     90 H39        -4.2890   -2.4380    4.3750 hc        1 MOL      0.080725
     91 H40        -3.3480   -1.2270    3.4000 hc        1 MOL      0.080725
     92 H41        -3.6790   -2.8240    2.7370 hc        1 MOL      0.080725
     93 N9         -0.0010   -0.5580    3.4050 n         1 MOL     -0.360222
     94 C29         0.4450    0.7200    2.8400 c3        1 MOL     -0.226889
     95 C30         1.7750    0.6490    2.1160 c         1 MOL      0.521885
     96 O16         2.1150    1.6560    1.4570 o         1 MOL     -0.529684
     97 C31         0.4310    1.8160    3.9460 c3        1 MOL      0.143278
     98 C32         1.5220    1.6300    4.9870 c3        1 MOL      0.213825
     99 C33        -0.9570    1.8200    4.5750 c3        1 MOL     -0.123703
    100 C34         1.6520    2.7420    6.0540 c3        1 MOL     -0.357847
    101 H42         0.3340   -0.8200    4.3200 hn        1 MOL      0.227169
    102 H43        -0.2680    1.0170    2.0800 h1        1 MOL      0.179960
    103 H44         0.5640    2.7820    3.4610 hc        1 MOL      0.011404
    104 H45         2.4440    1.4420    4.4350 hc        1 MOL     -0.032878
    105 H46         1.3450    0.7260    5.5830 hc        1 MOL     -0.032878
    106 H47        -1.2440    0.9250    5.1220 hc        1 MOL      0.023215
    107 H48        -1.0240    2.5840    5.3560 hc        1 MOL      0.023215
    108 H49        -1.7490    2.1490    3.9040 hc        1 MOL      0.023215
    109 H50         2.5000    2.5230    6.7120 hc        1 MOL      0.089405
    110 H51         1.9420    3.6600    5.5460 hc        1 MOL      0.089405
    111 H52         0.7390    2.7870    6.6470 hc        1 MOL      0.089405
    112 N10         2.4980   -0.4820    2.1220 n         1 MOL     -0.369214
    113 C35         3.6570   -0.8160    1.1640 c3        1 MOL      0.002046
    114 C36         4.7890   -1.4140    1.9960 c         1 MOL      0.670333
    115 O17         4.7370   -1.6820    3.2130 o         1 MOL     -0.545595
    116 C37         3.1230   -1.7260    0.0020 c3        1 MOL      0.192744
    117 C38         2.6580   -3.1030    0.3450 c3        1 MOL     -0.348323
    118 O18         1.8980   -1.0660   -0.4680 oh        1 MOL     -0.557640
    119 H53         2.2160   -1.1870    2.7810 hn        1 MOL      0.200047
    120 H54         3.9770    0.1340    0.7500 h1        1 MOL      0.085647
    121 H55         3.8800   -1.7990   -0.7700 h1        1 MOL      0.042291
    122 H56         2.0650   -0.3420   -1.0860 ho        1 MOL      0.400915
    123 H57         2.0210   -3.0220    1.2260 hc        1 MOL      0.113303
    124 H58         2.0980   -3.4290   -0.5420 hc        1 MOL      0.113303
    125 H59         3.4490   -3.8160    0.5860 hc        1 MOL      0.113303
    126 N11         5.9240   -1.4090    1.3430 n         1 MOL     -0.584512
    127 C39         7.1940   -1.8660    1.8360 c3        1 MOL      0.116308
    128 C40         8.2620   -0.7870    1.6650 c         1 MOL      0.619418
    129 O19         8.9530   -0.3780    2.6330 o         1 MOL     -0.558737
    130 C41         7.6400   -3.2000    1.2800 c3        1 MOL      0.216734
    131 C42         9.0730   -3.5800    1.7370 c3        1 MOL     -0.426961
    132 O20         7.7110   -3.1470   -0.1350 oh        1 MOL     -0.615486
    133 H60         5.8960   -1.1070    0.3840 hn        1 MOL      0.266284
    134 H61         7.2100   -1.9320    2.9300 h1        1 MOL      0.082554
    135 H62         6.8890   -3.9080    1.6280 h1        1 MOL      0.043298
    136 H63         7.4630   -4.0330   -0.3950 ho        1 MOL      0.409751
    137 H64         9.2000   -3.3520    2.7960 hc        1 MOL      0.120035
    138 H65         9.2430   -4.6180    1.4340 hc        1 MOL      0.120035
    139 H66         9.7630   -2.9530    1.1850 hc        1 MOL      0.120035
    140 N12         8.3960   -0.2670    0.4230 n         1 MOL     -0.469664
    141 C43         9.4540    0.7780    0.0380 c3        1 MOL     -0.050749
    142 C44         8.9710    1.7380   -1.0570 c         1 MOL      0.603897
    143 O21         8.3030    1.2910   -1.9840 o         1 MOL     -0.496531
    144 C45        10.7450   -0.0770   -0.2900 c3        1 MOL     -0.128865
    145 C46        11.9890    0.8380   -0.2150 c3        1 MOL     -0.032732
    146 C47        13.3010    0.0330   -0.0320 c3        1 MOL     -0.004834
    147 C48        13.6520   -0.6820   -1.3530 c3        1 MOL      0.048413
    148 N13        14.6790   -1.7210   -1.1960 n4        1 MOL     -0.282212
    149 H67         7.9380   -0.6760   -0.3770 hn        1 MOL      0.291308
    150 H68         9.7130    1.4400    0.8700 h1        1 MOL      0.113869
    151 H69        10.7440   -0.5230   -1.2820 hc        1 MOL      0.068714
    152 H70        10.8080   -0.9210    0.3940 hc        1 MOL      0.068714
    153 H71        11.8950    1.4780    0.6690 hc        1 MOL      0.048002
    154 H72        12.0910    1.5050   -1.0720 hc        1 MOL      0.048002
    155 H73        13.1550   -0.7560    0.7110 hc        1 MOL      0.029368
    156 H74        14.1120    0.6610    0.3460 hc        1 MOL      0.029368
    157 H75        13.9900    0.1090   -2.0320 hx        1 MOL      0.066548
    158 H76        12.7540   -1.1050   -1.8020 hx        1 MOL      0.066548
    159 H77        14.3580   -2.5510   -0.7210 hn        1 MOL      0.247366
    160 H78        15.0580   -1.9950   -2.0880 hn        1 MOL      0.247366
    161 H79        15.4660   -1.2670   -0.7660 hn        1 MOL      0.247366
    162 N14         9.2770    3.0460   -0.9630 n         1 MOL     -0.584039
    163 C49         8.8700    4.0260   -1.9520 c3        1 MOL      0.343358
    164 C50         7.3600    4.0210   -2.4200 c         1 MOL      0.153348
    165 O22         7.1580    3.6980   -3.6400 o         1 MOL     -0.487347
    166 C51         9.3350    5.4290   -1.5460 c3        1 MOL     -0.085341
    167 C52         8.7710    6.4330   -2.5190 c3        1 MOL     -0.126425
    168 C53         9.5600    7.7790   -2.4630 c         1 MOL      0.693607
    169 O23         9.7650    8.3450   -3.5570 o         1 MOL     -0.643938
    170 O24        10.0900    8.1920   -1.4070 o         1 MOL     -0.643938
    171 H80        10.0010    3.2960   -0.3110 hn        1 MOL      0.274373
    172 H81         9.3680    3.8050   -2.8990 h1        1 MOL      0.024320
    173 H82        10.4200    5.5350   -1.5740 hc        1 MOL      0.020972
    174 H83         9.0530    5.7000   -0.5320 hc        1 MOL      0.020972
    175 H84         7.7600    6.7570   -2.2500 hc        1 MOL      0.034204
    176 H85         8.7440    6.0540   -3.5330 hc        1 MOL      0.034204
    177 N15         6.4390    4.2500   -1.5380 n         1 MOL     -0.094134
    178 C54         6.4660    4.5140   -0.1000 c3        1 MOL     -0.238975
    179 H86         7.3160    5.1560    0.1340 h1        1 MOL      0.106447
    180 H87         5.5430    5.0120    0.1960 h1        1 MOL      0.106447
    181 H88         6.5620    3.5730    0.4410 h1        1 MOL      0.106447
    182 H89         5.5270    4.2200   -1.9790 hn        1 MOL      0.234461
    183 Ca1        -2.1070   -3.3660   -3.0180 Ca        1 MOL      1.749732
    184 O25         0.1410   -2.1490   -3.9990 oh        1 MOL     -0.814176
    185 H90         0.8140   -1.8330   -3.4000 ho        1 MOL      0.406286
    186 H91         0.0630   -1.4570   -4.6610 ho        1 MOL      0.406286
    187 O26        -0.2720   -5.1360   -2.3550 oh        1 MOL     -0.814176
    188 H92         0.5920   -5.2240   -2.7600 ho        1 MOL      0.406286
    189 H93        -0.4970   -6.0180   -2.0760 ho        1 MOL      0.406286
    190 O27        -1.1500   -4.6420   -5.2710 oh        1 MOL     -0.814176
    191 H94        -0.2280   -4.8310   -5.4180 ho        1 MOL      0.406286
    192 H95        -1.6110   -5.4160   -5.6040 ho        1 MOL      0.406286
    193 O28        -0.8280   -2.1220   -0.9580 oh        1 MOL     -0.814176
    194 H96         0.0560   -1.8180   -0.7520 ho        1 MOL      0.406286
    195 H97        -1.2360   -2.2730   -0.1160 ho        1 MOL      0.406286
    196 O29        -3.9720   -3.7770   -5.0450 oh        1 MOL     -0.814176
    197 H98        -4.7200   -3.1890   -5.1840 ho        1 MOL      0.406286
    198 H99        -4.2840   -4.6440   -5.3110 ho        1 MOL      0.406286
@<TRIPOS>BOND
     1    1    2 1   
     2    1    4 1   
     3    1    5 1   
     4    1    6 1   
     5    2    3 2   
     6    2    7 1   
     7    7    8 1   
     8    7   15 1   
     9    8    9 1   
    10    8   11 1   
    11    8   16 1   
    12    9   10 2   
    13    9   19 1   
    14   11   12 1   
    15   11   17 1   
    16   11   18 1   
    17   12   13 1   
    18   12   14 1   
    19   19   20 1   
    20   19   28 1   
    21   20   21 1   
    22   20   23 1   
    23   20   29 1   
    24   21   22 2   
    25   21   41 1   
    26   23   24 1   
    27   23   30 1   
    28   23   31 1   
    29   24   25 1   
    30   24   32 1   
    31   24   33 1   
    32   25   26 1   
    33   25   34 1   
    34   25   35 1   
    35   26   27 1   
    36   26   36 1   
    37   26   37 1   
    38   27   38 1   
    39   27   39 1   
    40   27   40 1   
    41   41   42 1   
    42   41   49 1   
    43   42   43 1   
    44   42   45 1   
    45   42   50 1   
    46   43   44 2   
    47   43   53 1   
    48   45   46 1   
    49   45   51 1   
    50   45   52 1   
    51   46   47 1   
    52   46   48 1   
    53   53   54 1   
    54   53   57 1   
    55   54   55 1   
    56   54   58 1   
    57   54   59 1   
    58   55   56 2   
    59   55   60 1   
    60   60   61 1   
    61   60   68 1   
    62   61   62 1   
    63   61   64 1   
    64   61   69 1   
    65   62   63 2   
    66   62   72 1   
    67   64   65 1   
    68   64   70 1   
    69   64   71 1   
    70   65   66 1   
    71   65   67 1   
    72   72   73 1   
    73   72   76 1   
    74   73   74 1   
    75   73   77 1   
    76   73   78 1   
    77   74   75 2   
    78   74   79 1   
    79   79   80 1   
    80   79   86 1   
    81   80   81 1   
    82   80   83 1   
    83   80   87 1   
    84   81   82 2   
    85   81   93 1   
    86   83   84 1   
    87   83   85 1   
    88   83   88 1   
    89   84   90 1   
    90   84   91 1   
    91   84   92 1   
    92   85   89 1   
    93   93   94 1   
    94   93  101 1   
    95   94   95 1   
    96   94   97 1   
    97   94  102 1   
    98   95   96 2   
    99   95  112 1   
   100   97   98 1   
   101   97   99 1   
   102   97  103 1   
   103   98  100 1   
   104   98  104 1   
   105   98  105 1   
   106   99  106 1   
   107   99  107 1   
   108   99  108 1   
   109  100  109 1   
   110  100  110 1   
   111  100  111 1   
   112  112  113 1   
   113  112  119 1   
   114  113  114 1   
   115  113  116 1   
   116  113  120 1   
   117  114  115 2   
   118  114  126 1   
   119  116  117 1   
   120  116  118 1   
   121  116  121 1   
   122  117  123 1   
   123  117  124 1   
   124  117  125 1   
   125  118  122 1   
   126  126  127 1   
   127  126  133 1   
   128  127  128 1   
   129  127  130 1   
   130  127  134 1   
   131  128  129 2   
   132  128  140 1   
   133  130  131 1   
   134  130  132 1   
   135  130  135 1   
   136  131  137 1   
   137  131  138 1   
   138  131  139 1   
   139  132  136 1   
   140  140  141 1   
   141  140  149 1   
   142  141  142 1   
   143  141  144 1   
   144  141  150 1   
   145  142  143 2   
   146  142  162 1   
   147  144  145 1   
   148  144  151 1   
   149  144  152 1   
   150  145  146 1   
   151  145  153 1   
   152  145  154 1   
   153  146  147 1   
   154  146  155 1   
   155  146  156 1   
   156  147  148 1   
   157  147  157 1   
   158  147  158 1   
   159  148  159 1   
   160  148  160 1   
   161  148  161 1   
   162  162  163 1   
   163  162  171 1   
   164  163  164 1   
   165  163  166 1   
   166  163  172 1   
   167  164  165 2   
   168  164  177 1   
   169  166  167 1   
   170  166  173 1   
   171  166  174 1   
   172  167  168 1   
   173  167  175 1   
   174  167  176 1   
   175  168  169 1   
   176  168  170 1   
   177  177  178 1   
   178  177  182 1   
   179  178  179 1   
   180  178  180 1   
   181  178  181 1   
   182  184  185 1   
   183  184  186 1   
   184  187  188 1   
   185  187  189 1   
   186  190  191 1   
   187  190  192 1   
   188  193  194 1   
   189  193  195 1   
   190  196  197 1   
   191  196  198 1   
@<TRIPOS>SUBSTRUCTURE
     1 MOL         1 TEMP              0 ****  ****    0 ROOT
