@<TRIPOS>MOLECULE
MOL
  178   175     1     0     0
SMALL
resp


@<TRIPOS>ATOM
      1 C1          4.7710   -1.9400    2.7740 c3        1 MOL     -0.444834
      2 C2          6.0850   -1.1860    2.5470 c         1 MOL      0.685203
      3 O1          6.1260   -0.0060    2.0850 o         1 MOL     -0.606750
      4 H1          4.5280   -1.9340    3.8360 hc        1 MOL      0.127252
      5 H2          3.9710   -1.4540    2.2160 hc        1 MOL      0.127252
      6 H3          4.8790   -2.9700    2.4320 hc        1 MOL      0.127252
      7 N1          7.2410   -1.8540    2.7480 n         1 MOL     -0.575989
      8 C3          8.5800   -1.1730    2.4850 c3        1 MOL      0.172725
      9 C4          8.9180   -1.2430    0.9430 c         1 MOL      0.525708
     10 O2          9.2130   -2.2380    0.3260 o         1 MOL     -0.538922
     11 C5          9.6710   -1.8440    3.3920 c3        1 MOL     -0.166418
     12 C6         10.9520   -0.9920    3.5480 c         1 MOL      0.690354
     13 O3         11.9360   -1.6310    4.0920 o         1 MOL     -0.729567
     14 O4         10.9160    0.2390    3.2690 o         1 MOL     -0.729567
     15 H4          7.1920   -2.8460    2.9510 hn        1 MOL      0.299470
     16 H5          8.4710   -0.1090    2.6970 h1        1 MOL      0.051950
     17 H6         10.0100   -2.7800    2.9540 hc        1 MOL      0.020067
     18 H7          9.2610   -2.0330    4.3840 hc        1 MOL      0.020067
     19 N2          8.8040   -0.1200    0.2930 n         1 MOL     -0.456682
     20 C7          8.8500    0.1400   -1.1380 c3        1 MOL      0.227817
     21 C8          7.6960   -0.4640   -1.9310 c         1 MOL      0.403131
     22 O5          7.7260   -0.7390   -3.1160 o         1 MOL     -0.554382
     23 C9          8.9780    1.6310   -1.5080 c3        1 MOL     -0.347930
     24 H8          8.5400    0.7070    0.8090 hn        1 MOL      0.276528
     25 H9          9.6900   -0.4380   -1.5300 h1        1 MOL      0.062769
     26 H10         9.0050    1.5660   -2.5980 hc        1 MOL      0.089860
     27 H11         8.1360    2.2770   -1.2560 hc        1 MOL      0.089860
     28 H12         9.9020    2.0610   -1.1190 hc        1 MOL      0.089860
     29 N3          6.6670   -0.8330   -1.1760 n         1 MOL     -0.153319
     30 C10         5.3070   -1.3560   -1.5690 c3        1 MOL      0.102864
     31 C11         4.6240   -0.5060   -2.6760 c         1 MOL      0.376773
     32 O6          3.7180   -0.9330   -3.3540 o         1 MOL     -0.418152
     33 C12         5.2060   -2.8690   -1.8220 c3        1 MOL     -0.052071
     34 C13         3.8280   -3.4620   -1.5380 c         1 MOL      0.692679
     35 O7          3.6090   -4.6700   -1.9290 o         1 MOL     -0.784668
     36 O8          2.8590   -2.7860   -1.0830 o         1 MOL     -0.784668
     37 H13         6.8030   -0.6470   -0.1940 hn        1 MOL      0.068470
     38 H14         4.6880   -1.1900   -0.6900 h1        1 MOL      0.056742
     39 H15         5.9710   -3.4300   -1.2820 hc        1 MOL      0.026334
     40 H16         5.5990   -3.0360   -2.8270 hc        1 MOL      0.026334
     41 N4          5.0550    0.7680   -2.7450 n         1 MOL     -0.228729
     42 C14         4.9530    1.6020   -3.9930 c3        1 MOL     -0.066497
     43 C15         3.5130    2.1140   -4.1890 c         1 MOL      0.493291
     44 O9          3.2150    2.2590   -5.3680 o         1 MOL     -0.551465
     45 H17         5.6430    1.0900   -1.9900 hn        1 MOL      0.172153
     46 H18         5.2190    1.0690   -4.9150 h1        1 MOL      0.073814
     47 H19         5.5280    2.5260   -3.9510 h1        1 MOL      0.073814
     48 N5          2.7630    2.4060   -3.1270 n         1 MOL     -0.354530
     49 C16         1.4680    3.1620   -3.2940 c3        1 MOL      0.060936
     50 C17         1.5810    4.3950   -2.3240 c         1 MOL      0.351472
     51 O10         2.0430    4.2570   -1.1910 o         1 MOL     -0.486661
     52 C18         0.3130    2.1850   -2.9960 c3        1 MOL     -0.208960
     53 C19        -1.1050    2.7050   -3.1700 c         1 MOL      0.651997
     54 N6         -1.6550    3.1260   -2.0940 n         1 MOL     -0.787917
     55 O11        -1.6080    2.8730   -4.2830 o         1 MOL     -0.596842
     56 H20         3.1330    1.9910   -2.2830 hn        1 MOL      0.231780
     57 H21         1.3500    3.5020   -4.3240 h1        1 MOL      0.067037
     58 H22         0.4250    1.7530   -2.0100 hc        1 MOL      0.110334
     59 H23         0.3010    1.3630   -3.7170 hc        1 MOL      0.110334
     60 H24        -1.1090    3.1960   -1.2530 hn        1 MOL      0.356829
     61 H25        -2.6220    3.4180   -2.1690 hn        1 MOL      0.356829
     62 N7          1.2080    5.5590   -2.7460 n         1 MOL     -0.184051
     63 C20         1.0140    6.7410   -1.8410 c3        1 MOL     -0.342794
     64 C21        -0.3580    6.7780   -1.1020 c         1 MOL      0.572777
     65 O12        -1.3850    6.6120   -1.7650 o         1 MOL     -0.478053
     66 H26         1.1060    5.5900   -3.7460 hn        1 MOL      0.254632
     67 H27         0.9060    7.5590   -2.5520 h1        1 MOL      0.137589
     68 H28         1.8970    6.9740   -1.2510 h1        1 MOL      0.137589
     69 N8         -0.2650    6.9940    0.2340 n         1 MOL     -0.356360
     70 C22        -1.4630    7.0790    1.1410 c3        1 MOL     -0.373617
     71 C23        -1.9370    5.6800    1.6530 c         1 MOL      0.514289
     72 O13        -3.0750    5.5820    2.1060 o         1 MOL     -0.560401
     73 C24        -1.3100    7.9180    2.4170 c3        1 MOL      0.523337
     74 C25        -0.3310    7.5320    3.5510 c3        1 MOL     -0.386936
     75 O14        -0.8120    9.2280    2.0450 oh        1 MOL     -0.634488
     76 H29         0.5890    7.3530    0.6480 hn        1 MOL      0.268880
     77 H30        -2.2790    7.4620    0.5340 h1        1 MOL      0.183866
     78 H31        -2.2790    8.0720    2.8770 h1        1 MOL      0.042892
     79 H32         0.0700    9.0460    1.7170 ho        1 MOL      0.371121
     80 H33         0.6420    7.3540    3.0900 hc        1 MOL      0.097050
     81 H34        -0.2450    8.3710    4.2520 hc        1 MOL      0.097050
     82 H35        -0.6560    6.6350    4.0670 hc        1 MOL      0.097050
     83 N9         -1.1200    4.6310    1.5640 n         1 MOL     -0.166398
     84 C26        -1.4280    3.3130    2.1580 c3        1 MOL     -0.045888
     85 C27        -1.1170    2.2050    1.2080 c         1 MOL      0.463318
     86 O15        -0.1620    2.3170    0.4680 o         1 MOL     -0.455740
     87 C28        -0.6900    3.0710    3.4950 c3        1 MOL      0.111729
     88 C29        -1.5570    3.5860    4.6500 c3        1 MOL     -0.015684
     89 C30        -0.2070    1.6210    3.7880 c3        1 MOL     -0.229581
     90 C31        -0.8130    3.8280    6.0010 c3        1 MOL     -0.237985
     91 H36        -0.1880    4.8220    1.2130 hn        1 MOL      0.198051
     92 H37        -2.4830    3.3100    2.4380 h1        1 MOL      0.045437
     93 H38         0.1870    3.7170    3.4120 hc        1 MOL     -0.015165
     94 H39        -2.1940    2.7420    4.8980 hc        1 MOL      0.015318
     95 H40        -2.1090    4.4730    4.3530 hc        1 MOL      0.015318
     96 H41        -1.0210    0.9110    3.8850 hc        1 MOL      0.088541
     97 H42         0.4410    1.2720    2.9840 hc        1 MOL      0.088541
     98 H43         0.3990    1.5680    4.6990 hc        1 MOL      0.088541
     99 H44        -0.1040    4.6450    5.9030 hc        1 MOL      0.061824
    100 H45        -1.4470    4.3170    6.7430 hc        1 MOL      0.061824
    101 H46        -0.3800    2.9070    6.3860 hc        1 MOL      0.061824
    102 N10        -1.9580    1.1850    1.2010 n         1 MOL     -0.539818
    103 C32        -1.9380   -0.0700    0.4460 c3        1 MOL      0.365901
    104 C33        -3.2180   -0.5860   -0.1300 c         1 MOL      0.463647
    105 O16        -3.4010   -1.7720   -0.4920 o         1 MOL     -0.406210
    106 C34        -1.3450   -1.2790    1.2470 c3        1 MOL     -0.005913
    107 C35        -0.5600   -2.2540    0.3590 c         1 MOL      0.709439
    108 O17        -0.2270   -3.3290    0.8310 o         1 MOL     -0.742723
    109 O18        -0.3980   -2.0880   -0.8790 o         1 MOL     -0.742723
    110 H47        -2.7760    1.2520    1.7980 hn        1 MOL      0.285146
    111 H48        -1.3050    0.1300   -0.4280 h1        1 MOL     -0.035067
    112 H49        -2.2110   -1.8270    1.6150 hc        1 MOL     -0.057355
    113 H50        -0.7530   -0.9230    2.0870 hc        1 MOL     -0.057355
    114 N11        -4.1700    0.3440   -0.2010 n         1 MOL     -0.509577
    115 C36        -5.5770    0.1110   -0.6340 c3        1 MOL      0.159742
    116 C37        -6.3440   -0.8000    0.2820 c         1 MOL      0.200286
    117 O19        -6.1760   -0.7650    1.4960 o         1 MOL     -0.512528
    118 C38        -6.2820    1.5110   -0.6360 c3        1 MOL     -0.114183
    119 C39        -7.7020    1.4350   -1.1790 ca        1 MOL      0.018197
    120 C40        -7.9700    1.8070   -2.5310 ca        1 MOL     -0.160057
    121 C41        -8.7770    1.0770   -0.2900 ca        1 MOL     -0.160057
    122 C42        -9.2710    1.6800   -3.0090 ca        1 MOL     -0.080654
    123 C43       -10.0950    0.9760   -0.7760 ca        1 MOL     -0.080654
    124 C44       -10.3300    1.3950   -2.1260 ca        1 MOL     -0.166285
    125 H51        -4.0050    1.2440    0.2270 hn        1 MOL      0.248677
    126 H52        -5.5770   -0.2210   -1.6650 h1        1 MOL      0.065856
    127 H53        -5.8070    2.2040   -1.3350 hc        1 MOL      0.086043
    128 H54        -6.2250    2.1110    0.2730 hc        1 MOL      0.086043
    129 H55        -7.1790    2.1510   -3.1790 ha        1 MOL      0.135994
    130 H56        -8.5920    0.7620    0.7210 ha        1 MOL      0.135994
    131 H57        -9.3390    1.8300   -4.0690 ha        1 MOL      0.111121
    132 H58       -10.9390    0.7770   -0.1330 ha        1 MOL      0.111121
    133 H59       -11.3650    1.4350   -2.4250 ha        1 MOL      0.112375
    134 N12        -7.1180   -1.7570   -0.2110 n         1 MOL      0.056883
    135 C45        -7.8750   -2.7430    0.5980 c3        1 MOL     -0.006837
    136 C46        -6.9190   -3.7040    1.3480 c         1 MOL      0.346966
    137 O20        -7.4170   -4.3900    2.2100 o         1 MOL     -0.499138
    138 C47        -8.9300   -3.3910   -0.3420 c3        1 MOL     -0.056729
    139 C48        -8.8490   -2.6000   -1.6300 c3        1 MOL      0.061454
    140 C49        -7.4360   -1.9140   -1.6280 c3        1 MOL     -0.035325
    141 H60        -8.4690   -2.2560    1.3700 h1        1 MOL      0.089169
    142 H61        -8.7130   -4.4450   -0.5090 hc        1 MOL      0.036110
    143 H62        -9.9320   -3.3540    0.0810 hc        1 MOL      0.036110
    144 H63        -9.0600   -3.2260   -2.5000 hc        1 MOL     -0.007697
    145 H64        -9.6380   -1.8470   -1.6220 hc        1 MOL     -0.007697
    146 H65        -6.7020   -2.4580   -2.2210 h1        1 MOL      0.035865
    147 H66        -7.5910   -0.9290   -2.0620 h1        1 MOL      0.035865
    148 N13        -5.5860   -3.7490    1.0820 n         1 MOL     -0.144830
    149 C50        -4.6310   -4.6560    1.7830 c3        1 MOL     -0.130310
    150 C51        -4.5010   -4.0920    3.2590 c         1 MOL      0.495663
    151 O21        -4.7250   -4.8570    4.2250 o         1 MOL     -0.534377
    152 C52        -3.2730   -4.7620    1.1270 c3        1 MOL      0.074714
    153 C53        -3.2780   -5.5390   -0.1510 c3        1 MOL      0.070483
    154 C54        -1.8040   -5.6430   -0.7620 c         1 MOL      0.496316
    155 O22        -0.9050   -5.9980    0.0600 o         1 MOL     -0.696750
    156 O23        -1.5100   -5.1630   -1.8870 o         1 MOL     -0.696750
    157 H67        -5.2140   -3.0170    0.4790 hn        1 MOL      0.080824
    158 H68        -5.1450   -5.6170    1.8480 h1        1 MOL      0.093938
    159 H69        -2.6210   -5.2650    1.8420 hc        1 MOL      0.025984
    160 H70        -3.0450   -3.7200    0.9360 hc        1 MOL      0.025984
    161 H71        -4.0800   -5.1990   -0.8090 hc        1 MOL     -0.032921
    162 H72        -3.5310   -6.5780    0.0810 hc        1 MOL     -0.032921
    163 N14        -4.2330   -2.7520    3.3780 n         1 MOL     -0.242285
    164 C55        -3.9650   -2.1090    4.6680 c3        1 MOL     -0.195357
    165 H73        -3.8490   -2.8720    5.4370 h1        1 MOL      0.082544
    166 H74        -3.0480   -1.5220    4.5990 h1        1 MOL      0.082544
    167 H75        -4.7960   -1.4540    4.9280 h1        1 MOL      0.082544
    168 H76        -4.3040   -2.1380    2.5870 hn        1 MOL      0.282293
    169 Ca1         0.9300   -4.4660   -1.2710 Ca        1 MOL      1.757317
    170 O24         1.9380   -5.4630    1.0260 oh        1 MOL     -0.761424
    171 H77         2.4770   -5.4140    1.8170 ho        1 MOL      0.382089
    172 H78         1.2380   -6.0720    1.2550 ho        1 MOL      0.382089
    173 O25         0.5480   -3.4400   -3.8250 oh        1 MOL     -0.761424
    174 H79        -0.3360   -3.1650   -4.0390 ho        1 MOL      0.382089
    175 H80         1.1100   -2.7570   -4.1900 ho        1 MOL      0.382089
    176 O26         1.2760   -6.6990   -2.5490 oh        1 MOL     -0.761424
    177 H81         1.5570   -7.4150   -1.9810 ho        1 MOL      0.382089
    178 H82         1.0820   -7.1230   -3.3880 ho        1 MOL      0.382089
@<TRIPOS>BOND
     1    1    2 1   
     2    1    4 1   
     3    1    5 1   
     4    1    6 1   
     5    2    3 2   
     6    2    7 1   
     7    7    8 1   
     8    7   15 1   
     9    8    9 1   
    10    8   11 1   
    11    8   16 1   
    12    9   10 2   
    13    9   19 1   
    14   11   12 1   
    15   11   17 1   
    16   11   18 1   
    17   12   13 1   
    18   12   14 1   
    19   19   20 1   
    20   19   24 1   
    21   20   21 1   
    22   20   23 1   
    23   20   25 1   
    24   21   22 2   
    25   21   29 1   
    26   23   26 1   
    27   23   27 1   
    28   23   28 1   
    29   29   30 1   
    30   29   37 1   
    31   30   31 1   
    32   30   33 1   
    33   30   38 1   
    34   31   32 2   
    35   31   41 1   
    36   33   34 1   
    37   33   39 1   
    38   33   40 1   
    39   34   35 1   
    40   34   36 1   
    41   41   42 1   
    42   41   45 1   
    43   42   43 1   
    44   42   46 1   
    45   42   47 1   
    46   43   44 2   
    47   43   48 1   
    48   48   49 1   
    49   48   56 1   
    50   49   50 1   
    51   49   52 1   
    52   49   57 1   
    53   50   51 2   
    54   50   62 1   
    55   52   53 1   
    56   52   58 1   
    57   52   59 1   
    58   53   54 1   
    59   53   55 2   
    60   54   60 1   
    61   54   61 1   
    62   62   63 1   
    63   62   66 1   
    64   63   64 1   
    65   63   67 1   
    66   63   68 1   
    67   64   65 2   
    68   64   69 1   
    69   69   70 1   
    70   69   76 1   
    71   70   71 1   
    72   70   73 1   
    73   70   77 1   
    74   71   72 2   
    75   71   83 1   
    76   73   74 1   
    77   73   75 1   
    78   73   78 1   
    79   74   80 1   
    80   74   81 1   
    81   74   82 1   
    82   75   79 1   
    83   83   84 1   
    84   83   91 1   
    85   84   85 1   
    86   84   87 1   
    87   84   92 1   
    88   85   86 2   
    89   85  102 1   
    90   87   88 1   
    91   87   89 1   
    92   87   93 1   
    93   88   90 1   
    94   88   94 1   
    95   88   95 1   
    96   89   96 1   
    97   89   97 1   
    98   89   98 1   
    99   90   99 1   
   100   90  100 1   
   101   90  101 1   
   102  102  103 1   
   103  102  110 1   
   104  103  104 1   
   105  103  106 1   
   106  103  111 1   
   107  104  105 2   
   108  104  114 1   
   109  106  107 1   
   110  106  112 1   
   111  106  113 1   
   112  107  108 1   
   113  107  109 1   
   114  114  115 1   
   115  114  125 1   
   116  115  116 1   
   117  115  118 1   
   118  115  126 1   
   119  116  117 2   
   120  116  134 1   
   121  118  119 1   
   122  118  127 1   
   123  118  128 1   
   124  119  120 ar  
   125  119  121 ar  
   126  120  122 ar  
   127  120  129 1   
   128  121  123 ar  
   129  121  130 1   
   130  122  124 ar  
   131  122  131 1   
   132  123  124 ar  
   133  123  132 1   
   134  124  133 1   
   135  134  135 1   
   136  134  140 1   
   137  135  136 1   
   138  135  138 1   
   139  135  141 1   
   140  136  137 2   
   141  136  148 1   
   142  138  139 1   
   143  138  142 1   
   144  138  143 1   
   145  139  140 1   
   146  139  144 1   
   147  139  145 1   
   148  140  146 1   
   149  140  147 1   
   150  148  149 1   
   151  148  157 1   
   152  149  150 1   
   153  149  152 1   
   154  149  158 1   
   155  150  151 2   
   156  150  163 1   
   157  152  153 1   
   158  152  159 1   
   159  152  160 1   
   160  153  154 1   
   161  153  161 1   
   162  153  162 1   
   163  154  155 1   
   164  154  156 1   
   165  163  164 1   
   166  163  168 1   
   167  164  165 1   
   168  164  166 1   
   169  164  167 1   
   170  170  171 1   
   171  170  172 1   
   172  173  174 1   
   173  173  175 1   
   174  176  177 1   
   175  176  178 1   
@<TRIPOS>SUBSTRUCTURE
     1 MOL         1 TEMP              0 ****  ****    0 ROOT
