@<TRIPOS>MOLECULE
MOL
  178   175     1     0     0
SMALL
resp


@<TRIPOS>ATOM
      1 C1          1.6230    7.1270   -1.2760 c3        1 MOL     -0.380807
      2 C2          2.9950    6.7030   -0.9190 c         1 MOL      0.774515
      3 O1          3.4790    6.9590    0.1780 o         1 MOL     -0.619198
      4 H1          1.6630    7.8050   -2.1290 hc        1 MOL      0.089951
      5 H2          1.0270    6.2520   -1.5340 hc        1 MOL      0.089951
      6 H3          1.1680    7.6390   -0.4270 hc        1 MOL      0.089951
      7 N1          3.6700    5.9910   -1.7910 n         1 MOL     -0.756047
      8 C3          4.9430    5.3580   -1.4360 c3        1 MOL      0.451940
      9 C4          4.5260    4.1660   -0.4810 c         1 MOL      0.653096
     10 O2          3.7440    3.2520   -0.8030 o         1 MOL     -0.635734
     11 C5          5.6690    4.9180   -2.7030 c3        1 MOL     -0.291281
     12 C6          6.9740    4.2370   -2.5190 c         1 MOL      0.736211
     13 O3          7.6740    4.6530   -1.6070 o         1 MOL     -0.748866
     14 O4          7.2200    3.1730   -3.1360 o         1 MOL     -0.748866
     15 H4          3.1530    5.7510   -2.6280 hn        1 MOL      0.324613
     16 H5          5.5390    6.0830   -0.8800 h1        1 MOL     -0.017218
     17 H6          5.8160    5.7690   -3.3780 hc        1 MOL      0.020679
     18 H7          5.0130    4.1960   -3.1910 hc        1 MOL      0.020679
     19 N2          5.1290    4.2020    0.7160 n         1 MOL     -0.646995
     20 C7          4.8770    3.2390    1.8310 c3        1 MOL      0.673688
     21 C8          3.5360    3.3710    2.6140 c         1 MOL      0.235773
     22 O5          2.9010    4.4410    2.5030 o         1 MOL     -0.491686
     23 C9          6.1540    3.4260    2.6860 c3        1 MOL     -0.320328
     24 H8          5.9750    4.7480    0.8170 hn        1 MOL      0.296992
     25 H9          4.8940    2.2430    1.4010 h1        1 MOL     -0.088415
     26 H10         6.0130    2.9410    3.6510 hc        1 MOL      0.064107
     27 H11         6.9620    2.9550    2.1370 hc        1 MOL      0.064107
     28 H12         6.3180    4.4850    2.9000 hc        1 MOL      0.064107
     29 N3          3.1570    2.4650    3.5250 n         1 MOL     -0.343574
     30 C10         3.8040    1.1840    3.8720 c3        1 MOL     -0.026263
     31 C11         4.0420    0.2770    2.5700 c         1 MOL      0.506517
     32 O6          3.2540    0.1500    1.6590 o         1 MOL     -0.452771
     33 C12         2.9910    0.5250    4.9770 c3        1 MOL      0.014994
     34 C13         1.5640    0.1490    4.6450 c         1 MOL      0.604065
     35 O7          1.0630   -0.5230    5.5480 o         1 MOL     -0.661986
     36 O8          1.0730    0.3630    3.5240 o         1 MOL     -0.661986
     37 H13         2.1750    2.5900    3.7020 hn        1 MOL      0.256498
     38 H14         4.7470    1.4000    4.3660 h1        1 MOL      0.038425
     39 H15         3.0250    1.2120    5.8230 hc        1 MOL     -0.003397
     40 H16         3.5890   -0.3150    5.3330 hc        1 MOL     -0.003397
     41 N4          5.2540   -0.3480    2.6110 n         1 MOL     -0.530118
     42 C14         5.5840   -1.2600    1.5540 c3        1 MOL      0.094171
     43 C15         6.3390   -0.5620    0.3570 c         1 MOL      0.498396
     44 O9          6.4520    0.6070    0.2640 o         1 MOL     -0.417526
     45 H17         5.9320   -0.0980    3.3070 hn        1 MOL      0.304178
     46 H18         4.7030   -1.7700    1.1730 h1        1 MOL      0.038178
     47 H19         6.2690   -2.0060    1.9630 h1        1 MOL      0.038178
     48 N5          6.7040   -1.3110   -0.6950 n         1 MOL     -0.515893
     49 C16         6.7140   -2.7860   -0.8620 c3        1 MOL      0.152427
     50 C17         5.5540   -3.2350   -1.8350 c         1 MOL      0.632928
     51 O10         5.2840   -4.4590   -1.8550 o         1 MOL     -0.584580
     52 C18         8.1360   -3.1990   -1.4290 c3        1 MOL     -0.365764
     53 C19         9.2610   -2.9430   -0.4270 c         1 MOL      0.683767
     54 N6          9.4140   -3.6330    0.6930 n         1 MOL     -0.769055
     55 O11        10.0370   -1.9970   -0.5810 o         1 MOL     -0.525462
     56 H20         7.0020   -0.7920   -1.5150 hn        1 MOL      0.321189
     57 H21         6.5030   -3.2010    0.1210 h1        1 MOL      0.013636
     58 H22         8.3230   -2.5110   -2.2610 hc        1 MOL      0.107589
     59 H23         8.1430   -4.2570   -1.6760 hc        1 MOL      0.107589
     60 H24         8.7470   -4.3460    0.9370 hn        1 MOL      0.354422
     61 H25        10.2550   -3.5440    1.2530 hn        1 MOL      0.354422
     62 N7          4.9370   -2.3450   -2.6130 n         1 MOL     -0.486019
     63 C20         3.9540   -2.6760   -3.6320 c3        1 MOL     -0.117274
     64 C21         2.6120   -3.2230   -3.1600 c         1 MOL      0.468284
     65 O12         1.5640   -2.7940   -3.5960 o         1 MOL     -0.530655
     66 H26         5.2990   -1.4060   -2.5340 hn        1 MOL      0.333455
     67 H27         4.4150   -3.3680   -4.3360 h1        1 MOL      0.126804
     68 H28         3.7470   -1.7750   -4.2110 h1        1 MOL      0.126804
     69 N8          2.6150   -4.1340   -2.1590 n         1 MOL     -0.299480
     70 C22         1.3590   -4.8320   -1.7570 c3        1 MOL     -0.113402
     71 C23         0.2370   -3.8200   -1.2210 c         1 MOL      0.705505
     72 O13         0.4720   -2.9100   -0.4170 o         1 MOL     -0.705121
     73 C24         1.5100   -5.8450   -0.6780 c3        1 MOL      0.394344
     74 C25         2.5370   -6.9810   -1.0590 c3        1 MOL     -0.463973
     75 O14         2.0420   -5.3680    0.5370 oh        1 MOL     -0.623164
     76 H29         3.4870   -4.3380   -1.6960 hn        1 MOL      0.241847
     77 H30         0.9470   -5.2170   -2.6900 h1        1 MOL      0.093378
     78 H31         0.5600   -6.3510   -0.5360 h1        1 MOL      0.004869
     79 H32         1.4030   -5.5750    1.2210 ho        1 MOL      0.426663
     80 H33         2.3250   -7.2460   -2.1010 hc        1 MOL      0.118815
     81 H34         3.5630   -6.6880   -0.8910 hc        1 MOL      0.118815
     82 H35         2.4380   -7.8100   -0.3540 hc        1 MOL      0.118815
     83 N9         -0.9940   -4.0520   -1.6550 n         1 MOL     -0.428019
     84 C26        -2.1670   -3.2270   -1.2890 c3        1 MOL     -0.026310
     85 C27        -2.6800   -3.6540    0.0510 c         1 MOL      0.403678
     86 O15        -2.7050   -4.8110    0.4650 o         1 MOL     -0.558739
     87 C28        -3.2000   -3.3510   -2.3660 c3        1 MOL     -0.021000
     88 C29        -4.5520   -2.6640   -2.1190 c3        1 MOL      0.098484
     89 C30        -2.5060   -2.7320   -3.6220 c3        1 MOL     -0.088604
     90 C31        -5.5330   -2.6630   -3.2690 c3        1 MOL     -0.145162
     91 H36        -1.1580   -4.9540   -2.0840 hn        1 MOL      0.241675
     92 H37        -1.9010   -2.1720   -1.3380 h1        1 MOL      0.160263
     93 H38        -3.3680   -4.4120   -2.5570 hc        1 MOL      0.026312
     94 H39        -4.2510   -1.6620   -1.8450 hc        1 MOL     -0.000702
     95 H40        -5.0980   -3.0700   -1.2670 hc        1 MOL     -0.000702
     96 H41        -1.5660   -3.1500   -3.9950 hc        1 MOL      0.022002
     97 H42        -3.1410   -2.8570   -4.4960 hc        1 MOL      0.022002
     98 H43        -2.2920   -1.6700   -3.4840 hc        1 MOL      0.022002
     99 H44        -5.1140   -2.1030   -4.1050 hc        1 MOL      0.018364
    100 H45        -5.8320   -3.6790   -3.5530 hc        1 MOL      0.018364
    101 H46        -6.4260   -2.1320   -2.9400 hc        1 MOL      0.018364
    102 N10        -3.1840   -2.6600    0.7120 n         1 MOL     -0.069040
    103 C32        -4.0070   -2.8040    1.9650 c3        1 MOL     -0.122615
    104 C33        -5.3260   -2.0490    1.8660 c         1 MOL      0.281947
    105 O16        -6.2440   -2.1490    2.7220 o         1 MOL     -0.552244
    106 C34        -3.3020   -2.2990    3.2440 c3        1 MOL      0.078812
    107 C35        -1.8520   -2.5280    3.1900 c         1 MOL      0.708642
    108 O17        -1.4200   -3.5400    3.8110 o         1 MOL     -0.734820
    109 O18        -1.0330   -1.8350    2.5340 o         1 MOL     -0.734820
    110 H47        -3.1970   -1.7340    0.2890 hn        1 MOL      0.074501
    111 H48        -4.1890   -3.8780    2.0290 h1        1 MOL      0.120452
    112 H49        -3.5950   -2.8000    4.1630 hc        1 MOL     -0.004418
    113 H50        -3.4410   -1.2270    3.4020 hc        1 MOL     -0.004418
    114 N11        -5.5180   -1.1550    0.8950 n         1 MOL     -0.025097
    115 C36        -6.6990   -0.3400    0.7640 c3        1 MOL      0.132097
    116 C37        -6.3640    1.1950    0.4800 c         1 MOL      0.342173
    117 O19        -6.6460    1.6980   -0.6040 o         1 MOL     -0.497851
    118 C38        -7.6570   -0.9790   -0.2720 c3        1 MOL     -0.217675
    119 C39        -9.1230   -0.5840   -0.0390 ca        1 MOL      0.031374
    120 C40        -9.6890   -0.8060    1.1820 ca        1 MOL     -0.097821
    121 C41        -9.8150    0.1880   -1.0510 ca        1 MOL     -0.097821
    122 C42       -11.0510   -0.3400    1.4320 ca        1 MOL     -0.174319
    123 C43       -11.1050    0.6330   -0.8390 ca        1 MOL     -0.174319
    124 C44       -11.6820    0.4090    0.4130 ca        1 MOL     -0.075013
    125 H51        -4.7130   -0.8060    0.3740 hn        1 MOL      0.198481
    126 H52        -7.2350   -0.3670    1.7110 h1        1 MOL      0.053482
    127 H53        -7.4130   -2.0440   -0.2740 hc        1 MOL      0.073242
    128 H54        -7.3180   -0.6310   -1.2450 hc        1 MOL      0.073242
    129 H55        -9.2420   -1.3260    2.0210 ha        1 MOL      0.117861
    130 H56        -9.3390    0.4230   -1.9960 ha        1 MOL      0.117861
    131 H57       -11.5870   -0.4490    2.3660 ha        1 MOL      0.115367
    132 H58       -11.5920    1.1550   -1.6490 ha        1 MOL      0.115367
    133 H59       -12.6570    0.8390    0.5540 ha        1 MOL      0.077776
    134 N12        -5.6000    1.8460    1.2850 n         1 MOL     -0.121953
    135 C45        -5.1250    3.2330    1.1640 c3        1 MOL     -0.013286
    136 C46        -4.6200    3.6980   -0.1890 c         1 MOL      0.312200
    137 O20        -4.7660    4.8770   -0.6200 o         1 MOL     -0.524060
    138 C47        -4.1310    3.3870    2.2830 c3        1 MOL     -0.128127
    139 C48        -4.8230    2.5750    3.3790 c3        1 MOL     -0.102422
    140 C49        -5.1170    1.3010    2.5430 c3        1 MOL      0.066176
    141 H60        -5.9740    3.8590    1.4330 h1        1 MOL      0.079151
    142 H61        -3.2140    2.8440    2.0510 hc        1 MOL      0.085941
    143 H62        -3.9700    4.4450    2.4680 hc        1 MOL      0.085941
    144 H63        -4.1790    2.3180    4.2210 hc        1 MOL      0.046864
    145 H64        -5.7570    2.9970    3.7580 hc        1 MOL      0.046864
    146 H65        -4.3050    0.5780    2.4950 h1        1 MOL      0.029643
    147 H66        -5.9330    0.7510    3.0060 h1        1 MOL      0.029643
    148 N13        -4.0530    2.7630   -0.9280 n         1 MOL      0.011913
    149 C50        -3.5260    3.0310   -2.2650 c3        1 MOL     -0.431280
    150 C51        -4.5650    3.3720   -3.2670 c         1 MOL      0.782564
    151 O21        -4.5480    4.4270   -3.8540 o         1 MOL     -0.565489
    152 C52        -2.6000    1.8350   -2.6900 c3        1 MOL      0.077010
    153 C53        -1.5630    1.2780   -1.5670 c3        1 MOL      0.019208
    154 C54        -2.1390    0.3610   -0.5210 c         1 MOL      0.950283
    155 O22        -1.2700   -0.0130    0.3490 o         1 MOL     -0.826265
    156 O23        -3.3750    0.1410   -0.5280 o         1 MOL     -0.826265
    157 H67        -3.9920    1.8230   -0.5680 hn        1 MOL      0.178503
    158 H68        -2.8580    3.8820   -2.0700 h1        1 MOL      0.160372
    159 H69        -2.0180    2.2600   -3.5130 hc        1 MOL     -0.029932
    160 H70        -3.1490    0.9660   -3.0770 hc        1 MOL     -0.029932
    161 H71        -1.1660    2.1380   -1.0320 hc        1 MOL     -0.021467
    162 H72        -0.7800    0.7170   -2.0800 hc        1 MOL     -0.021467
    163 N14        -5.5150    2.4070   -3.4610 n         1 MOL     -0.465171
    164 C55        -6.6950    2.7130   -4.2280 c3        1 MOL     -0.183988
    165 H73        -6.4670    3.5000   -4.9470 h1        1 MOL      0.083521
    166 H74        -7.0250    1.8200   -4.7590 h1        1 MOL      0.083521
    167 H75        -7.4860    3.0510   -3.5590 h1        1 MOL      0.083521
    168 H76        -5.6570    1.7070   -2.7390 hn        1 MOL      0.339399
    169 Ca1         0.9290   -0.8770    1.1540 Ca        1 MOL      1.725867
    170 O24         2.5260   -2.8000    1.7820 oh        1 MOL     -0.842010
    171 H77         2.3240   -3.3590    2.5330 ho        1 MOL      0.420391
    172 H78         2.8360   -3.4010    1.1120 ho        1 MOL      0.420391
    173 O25         1.9220   -0.5790   -1.2830 oh        1 MOL     -0.842010
    174 H79         1.6270   -1.0020   -2.0960 ho        1 MOL      0.420391
    175 H80         2.6900   -0.0720   -1.5470 ho        1 MOL      0.420391
    176 O26         1.2420    1.8960    0.4370 oh        1 MOL     -0.842010
    177 H81         1.2600    2.6160    1.0660 ho        1 MOL      0.420391
    178 H82         1.7970    2.1940   -0.2750 ho        1 MOL      0.420391
@<TRIPOS>BOND
     1    1    2 1   
     2    1    4 1   
     3    1    5 1   
     4    1    6 1   
     5    2    3 2   
     6    2    7 1   
     7    7    8 1   
     8    7   15 1   
     9    8    9 1   
    10    8   11 1   
    11    8   16 1   
    12    9   10 2   
    13    9   19 1   
    14   11   12 1   
    15   11   17 1   
    16   11   18 1   
    17   12   13 1   
    18   12   14 1   
    19   19   20 1   
    20   19   24 1   
    21   20   21 1   
    22   20   23 1   
    23   20   25 1   
    24   21   22 2   
    25   21   29 1   
    26   23   26 1   
    27   23   27 1   
    28   23   28 1   
    29   29   30 1   
    30   29   37 1   
    31   30   31 1   
    32   30   33 1   
    33   30   38 1   
    34   31   32 2   
    35   31   41 1   
    36   33   34 1   
    37   33   39 1   
    38   33   40 1   
    39   34   35 1   
    40   34   36 1   
    41   41   42 1   
    42   41   45 1   
    43   42   43 1   
    44   42   46 1   
    45   42   47 1   
    46   43   44 2   
    47   43   48 1   
    48   48   49 1   
    49   48   56 1   
    50   49   50 1   
    51   49   52 1   
    52   49   57 1   
    53   50   51 2   
    54   50   62 1   
    55   52   53 1   
    56   52   58 1   
    57   52   59 1   
    58   53   54 1   
    59   53   55 2   
    60   54   60 1   
    61   54   61 1   
    62   62   63 1   
    63   62   66 1   
    64   63   64 1   
    65   63   67 1   
    66   63   68 1   
    67   64   65 2   
    68   64   69 1   
    69   69   70 1   
    70   69   76 1   
    71   70   71 1   
    72   70   73 1   
    73   70   77 1   
    74   71   72 2   
    75   71   83 1   
    76   73   74 1   
    77   73   75 1   
    78   73   78 1   
    79   74   80 1   
    80   74   81 1   
    81   74   82 1   
    82   75   79 1   
    83   83   84 1   
    84   83   91 1   
    85   84   85 1   
    86   84   87 1   
    87   84   92 1   
    88   85   86 2   
    89   85  102 1   
    90   87   88 1   
    91   87   89 1   
    92   87   93 1   
    93   88   90 1   
    94   88   94 1   
    95   88   95 1   
    96   89   96 1   
    97   89   97 1   
    98   89   98 1   
    99   90   99 1   
   100   90  100 1   
   101   90  101 1   
   102  102  103 1   
   103  102  110 1   
   104  103  104 1   
   105  103  106 1   
   106  103  111 1   
   107  104  105 2   
   108  104  114 1   
   109  106  107 1   
   110  106  112 1   
   111  106  113 1   
   112  107  108 1   
   113  107  109 1   
   114  114  115 1   
   115  114  125 1   
   116  115  116 1   
   117  115  118 1   
   118  115  126 1   
   119  116  117 2   
   120  116  134 1   
   121  118  119 1   
   122  118  127 1   
   123  118  128 1   
   124  119  120 ar  
   125  119  121 ar  
   126  120  122 ar  
   127  120  129 1   
   128  121  123 ar  
   129  121  130 1   
   130  122  124 ar  
   131  122  131 1   
   132  123  124 ar  
   133  123  132 1   
   134  124  133 1   
   135  134  135 1   
   136  134  140 1   
   137  135  136 1   
   138  135  138 1   
   139  135  141 1   
   140  136  137 2   
   141  136  148 1   
   142  138  139 1   
   143  138  142 1   
   144  138  143 1   
   145  139  140 1   
   146  139  144 1   
   147  139  145 1   
   148  140  146 1   
   149  140  147 1   
   150  148  149 1   
   151  148  157 1   
   152  149  150 1   
   153  149  152 1   
   154  149  158 1   
   155  150  151 2   
   156  150  163 1   
   157  152  153 1   
   158  152  159 1   
   159  152  160 1   
   160  153  154 1   
   161  153  161 1   
   162  153  162 1   
   163  154  155 1   
   164  154  156 1   
   165  163  164 1   
   166  163  168 1   
   167  164  165 1   
   168  164  166 1   
   169  164  167 1   
   170  170  171 1   
   171  170  172 1   
   172  173  174 1   
   173  173  175 1   
   174  176  177 1   
   175  176  178 1   
@<TRIPOS>SUBSTRUCTURE
     1 MOL         1 TEMP              0 ****  ****    0 ROOT
