@<TRIPOS>MOLECULE
MOL
  188   182     1     0     0
SMALL
resp


@<TRIPOS>ATOM
      1 C1          4.5630    2.3440    1.6870 c3        1 MOL     -0.277271
      2 C2          5.6670    2.4670    0.5820 c         1 MOL      0.711419
      3 O1          5.3230    2.3440   -0.5950 o         1 MOL     -0.508788
      4 H1          4.6710    1.3890    2.2020 hc        1 MOL      0.065028
      5 H2          4.6740    3.1570    2.4040 hc        1 MOL      0.065028
      6 H3          3.5780    2.3980    1.2250 hc        1 MOL      0.065028
      7 N1          6.9530    2.7180    0.9540 n         1 MOL     -0.522098
      8 C3          8.1450    2.6840    0.0720 c3        1 MOL      0.058053
      9 C4          8.4410    1.2490   -0.4520 c         1 MOL      0.421705
     10 O2          9.2090    1.0880   -1.3990 o         1 MOL     -0.526308
     11 C5          8.1730    3.8170   -1.0000 c3        1 MOL     -0.287169
     12 C6          7.5210    5.1310   -0.5300 c         1 MOL      0.720156
     13 O3          7.7200    5.6390    0.5590 o         1 MOL     -0.645616
     14 O4          6.7270    5.6610   -1.3720 o         1 MOL     -0.645616
     15 H4          7.1210    2.8490    1.9380 hn        1 MOL      0.279694
     16 H5          9.0300    2.8880    0.6860 h1        1 MOL      0.075191
     17 H6          7.6790    3.4190   -1.8850 hc        1 MOL      0.096353
     18 H7          9.1710    4.0890   -1.3710 hc        1 MOL      0.096353
     19 N2          7.9750    0.2160    0.2550 n         1 MOL     -0.294942
     20 C7          8.2410   -1.2040    0.0440 c3        1 MOL      0.143424
     21 C8          6.9200   -1.9450   -0.3380 c         1 MOL      0.479071
     22 O5          7.1250   -3.1060   -0.7660 o         1 MOL     -0.583711
     23 C9          8.9910   -1.7490    1.1980 c3        1 MOL     -0.119861
     24 C10        10.3480   -1.0940    1.3730 c3        1 MOL      0.124342
     25 C11        11.2230   -1.9600    2.3130 c3        1 MOL     -0.112581
     26 C12        12.6810   -1.3970    2.4850 c3        1 MOL      0.071407
     27 N3         13.5590   -2.1400    3.3290 n4        1 MOL     -0.216959
     28 H8          7.4580    0.4350    1.0980 hn        1 MOL      0.189735
     29 H9          8.8250   -1.3400   -0.8640 h1        1 MOL      0.101241
     30 H10         9.1990   -2.8070    1.0780 hc        1 MOL      0.021605
     31 H11         8.4570   -1.5310    2.1300 hc        1 MOL      0.021605
     32 H12        10.2320   -0.0870    1.7910 hc        1 MOL     -0.010933
     33 H13        10.8680   -1.0800    0.4150 hc        1 MOL     -0.010933
     34 H14        11.2970   -2.9220    1.7930 hc        1 MOL      0.053163
     35 H15        10.7160   -2.0890    3.2660 hc        1 MOL      0.053163
     36 H16        12.5750   -0.3800    2.8570 hx        1 MOL      0.063677
     37 H17        13.1680   -1.2480    1.5240 hx        1 MOL      0.063677
     38 H18        14.4880   -1.7330    3.2930 hn        1 MOL      0.230444
     39 H19        13.1520   -2.2340    4.2470 hn        1 MOL      0.230444
     40 H20        13.6830   -3.0720    2.9800 hn        1 MOL      0.230444
     41 N4          5.6940   -1.4240   -0.2070 n         1 MOL     -0.325150
     42 C13         4.3720   -2.1370   -0.2980 c3        1 MOL      0.027622
     43 C14         3.6980   -1.8000   -1.6380 c         1 MOL      0.572593
     44 O6          3.5840   -0.5770   -1.9230 o         1 MOL     -0.509965
     45 C15         3.5350   -1.8400    0.9840 c3        1 MOL     -0.077822
     46 C16         2.1470   -2.3920    0.9480 c         1 MOL      0.678295
     47 O7          1.5510   -2.5510    2.0160 o         1 MOL     -0.694373
     48 O8          1.5910   -2.8770   -0.0410 o         1 MOL     -0.694373
     49 H21         5.7090   -0.4740    0.1410 hn        1 MOL      0.159115
     50 H22         4.5690   -3.2100   -0.2950 h1        1 MOL      0.039879
     51 H23         3.3250   -0.7740    1.0930 hc        1 MOL      0.032739
     52 H24         4.0460   -2.1900    1.8780 hc        1 MOL      0.032739
     53 N5          3.2270   -2.7480   -2.4440 n         1 MOL     -0.333504
     54 C17         2.8270   -2.4940   -3.8080 c3        1 MOL     -0.230745
     55 C18         1.5850   -1.7690   -4.0460 c         1 MOL      0.577396
     56 O9          1.1420   -1.6050   -5.1700 o         1 MOL     -0.566929
     57 H25         3.1930   -3.6880   -2.0910 hn        1 MOL      0.202685
     58 H26         2.7120   -3.4220   -4.3520 h1        1 MOL      0.134667
     59 H27         3.4960   -1.8570   -4.4000 h1        1 MOL      0.134667
     60 N6          0.8970   -1.3390   -2.9470 n         1 MOL     -0.313980
     61 C19        -0.3030   -0.4800   -3.0620 c3        1 MOL      0.108451
     62 C20        -0.0190    1.0440   -3.0410 c         1 MOL      0.483069
     63 O10        -0.9000    1.8660   -3.3900 o         1 MOL     -0.532425
     64 C21        -1.3540   -0.8690   -1.9260 c3        1 MOL     -0.310711
     65 C22        -1.8120   -2.3490   -2.1150 c         1 MOL      0.690679
     66 N7         -2.8310   -2.5770   -2.9070 n         1 MOL     -0.583619
     67 O11        -1.2750   -3.3300   -1.5950 o         1 MOL     -0.682081
     68 H28         1.2960   -1.5430   -2.0460 hn        1 MOL      0.178268
     69 H29        -0.8420   -0.6780   -3.9900 h1        1 MOL      0.055991
     70 H30        -2.1610   -0.1390   -1.9860 hc        1 MOL      0.118307
     71 H31        -0.9560   -0.7030   -0.9200 hc        1 MOL      0.118307
     72 H32        -3.3520   -1.8050   -3.2900 hn        1 MOL      0.302248
     73 H33        -3.2450   -3.4990   -2.8470 hn        1 MOL      0.302248
     74 N8          1.2100    1.3060   -2.5380 n         1 MOL     -0.352153
     75 C23         1.6630    2.6760   -2.1900 c3        1 MOL     -0.098904
     76 C24         0.8090    3.2690   -1.0190 c         1 MOL      0.596409
     77 O12         0.6520    2.6200    0.0070 o         1 MOL     -0.509321
     78 H34         1.7790    0.5560   -2.1830 hn        1 MOL      0.268554
     79 H35         1.6720    3.2580   -3.1080 h1        1 MOL      0.104351
     80 H36         2.6860    2.6520   -1.8310 h1        1 MOL      0.104351
     81 N9          0.1790    4.4120   -1.2340 n         1 MOL     -0.660709
     82 C25        -0.8940    5.0390   -0.5110 c3        1 MOL      0.516644
     83 C26        -2.1480    4.2190   -0.2860 c         1 MOL      0.128312
     84 O13        -3.2640    4.6980   -0.4650 o         1 MOL     -0.518326
     85 C27        -0.4010    5.6620    0.8320 c3        1 MOL     -0.238941
     86 C28        -1.0700    6.9580    1.4040 ca        1 MOL      0.253963
     87 C29        -1.2350    8.1060    0.6190 ca        1 MOL     -0.340987
     88 C30        -1.3960    7.0120    2.7370 ca        1 MOL     -0.340987
     89 C31        -1.8770    9.2350    1.1920 ca        1 MOL     -0.085030
     90 C32        -2.1070    8.1600    3.2740 ca        1 MOL     -0.085030
     91 C33        -2.3250    9.2670    2.5110 ca        1 MOL      0.184555
     92 O14        -3.1400   10.2850    2.9640 oh        1 MOL     -0.480270
     93 H37         0.3140    4.8420   -2.1400 hn        1 MOL      0.326181
     94 H38        -1.1040    5.8770   -1.1760 h1        1 MOL      0.006552
     95 H39         0.6270    5.9810    0.7070 hc        1 MOL      0.085121
     96 H40        -0.2610    4.8900    1.5900 hc        1 MOL      0.085121
     97 H41        -0.8610    8.1620   -0.3980 ha        1 MOL      0.174100
     98 H42        -1.3250    6.1300    3.3770 ha        1 MOL      0.174100
     99 H43        -2.0530   10.1300    0.6220 ha        1 MOL      0.110662
    100 H44        -2.4190    8.1420    4.3080 ha        1 MOL      0.110662
    101 H45        -3.3900   10.2490    3.8880 ho        1 MOL      0.366501
    102 N10        -2.0530    3.0070    0.3510 n         1 MOL     -0.178646
    103 C34        -3.0810    1.9950    0.7440 c3        1 MOL      0.125978
    104 C35        -3.7980    1.4240   -0.4890 c         1 MOL      0.211795
    105 O15        -4.2810    0.2980   -0.4580 o         1 MOL     -0.471770
    106 C36        -3.9540    2.6200    1.8630 c3        1 MOL      0.043343
    107 C37        -3.1970    2.6510    3.2310 c3        1 MOL      0.113502
    108 C38        -5.2500    1.7950    2.0900 c3        1 MOL     -0.523037
    109 C39        -3.9810    3.1650    4.3960 c3        1 MOL      0.029326
    110 H46        -1.0890    2.8440    0.6050 hn        1 MOL      0.160332
    111 H47        -2.4740    1.1570    1.0920 h1        1 MOL      0.064442
    112 H48        -4.2710    3.5690    1.4420 hc        1 MOL      0.066354
    113 H49        -2.3850    3.3730    3.1320 hc        1 MOL     -0.022804
    114 H50        -2.7590    1.6760    3.3780 hc        1 MOL     -0.022804
    115 H51        -5.0750    0.9060    2.6900 hc        1 MOL      0.140431
    116 H52        -6.0000    2.4060    2.5840 hc        1 MOL      0.140431
    117 H53        -5.7620    1.6720    1.1420 hc        1 MOL      0.140431
    118 H54        -3.3970    3.0140    5.2970 hc        1 MOL     -0.022265
    119 H55        -3.9980    4.2420    4.2450 hc        1 MOL     -0.022265
    120 H56        -4.9680    2.7130    4.4360 hc        1 MOL     -0.022265
    121 N11        -4.0190    2.2480   -1.5390 n         1 MOL     -0.123305
    122 C40        -4.8020    1.9580   -2.7810 c3        1 MOL     -0.024091
    123 C41        -6.2090    1.4010   -2.4940 c         1 MOL      0.405255
    124 O16        -6.6460    0.5680   -3.2770 o         1 MOL     -0.481267
    125 C42        -4.8740    3.2170   -3.6340 c3        1 MOL      0.192197
    126 O17        -3.7040    4.0070   -3.4910 oh        1 MOL     -0.544824
    127 H57        -3.7610    3.2210   -1.4670 hn        1 MOL      0.259154
    128 H58        -4.2500    1.1680   -3.2910 h1        1 MOL      0.076939
    129 H59        -5.7060    3.8170   -3.2840 h1        1 MOL      0.013964
    130 H60        -4.9490    3.0000   -4.6940 h1        1 MOL      0.013964
    131 H61        -3.6750    4.6230   -4.2300 ho        1 MOL      0.387763
    132 N12        -6.8700    1.8350   -1.4140 n         1 MOL     -0.445280
    133 C43        -8.1810    1.3340   -1.1120 c3        1 MOL      0.291202
    134 C44        -8.2190   -0.1500   -0.6630 c         1 MOL      0.398823
    135 O18        -9.2870   -0.7350   -0.4600 o         1 MOL     -0.554224
    136 C45        -9.2600    1.8310   -2.0980 c3        1 MOL     -0.487860
    137 H62        -6.5410    2.5960   -0.8400 hn        1 MOL      0.314070
    138 H63        -8.4900    1.8990   -0.2320 h1        1 MOL      0.036319
    139 H64       -10.2410    1.5710   -1.7120 hc        1 MOL      0.136306
    140 H65        -9.3450    2.9180   -2.0820 hc        1 MOL      0.136306
    141 H66        -9.0060    1.4160   -3.0710 hc        1 MOL      0.136306
    142 N13        -7.0840   -0.7960   -0.4400 n         1 MOL     -0.350285
    143 C46        -7.0400   -2.2200   -0.2680 c3        1 MOL      0.461173
    144 C47        -6.4220   -2.6370    1.1030 c         1 MOL      0.278181
    145 O19        -5.8200   -1.7810    1.8230 o         1 MOL     -0.448482
    146 C48        -6.2070   -2.7770   -1.4190 c3        1 MOL     -0.127686
    147 H67        -6.2320   -0.2510   -0.4880 hn        1 MOL      0.134712
    148 H68        -8.0400   -2.6710   -0.2770 h1        1 MOL     -0.026329
    149 H69        -6.1940   -3.8550   -1.3200 hc        1 MOL      0.028356
    150 H70        -6.6550   -2.5720   -2.3900 hc        1 MOL      0.028356
    151 H71        -5.1760   -2.4380   -1.3890 hc        1 MOL      0.028356
    152 N14        -6.3410   -3.9350    1.4630 n         1 MOL     -0.433888
    153 C49        -5.6000   -4.5390    2.5770 c3        1 MOL     -0.237682
    154 C50        -5.6790   -3.9790    4.0450 c         1 MOL      0.487873
    155 O20        -4.7330   -4.2720    4.8120 o         1 MOL     -0.519262
    156 C51        -4.1870   -4.8200    2.1480 c3        1 MOL      0.300143
    157 C52        -4.1180   -5.8430    1.0170 c3        1 MOL     -0.073485
    158 C53        -2.7160   -6.0200    0.6480 c         1 MOL      0.605200
    159 O21        -1.8660   -6.1590    1.5220 o         1 MOL     -0.715931
    160 O22        -2.3320   -5.9830   -0.5170 o         1 MOL     -0.715931
    161 H72        -6.7910   -4.6090    0.8570 hn        1 MOL      0.297236
    162 H73        -6.0990   -5.4730    2.7900 h1        1 MOL      0.085771
    163 H74        -3.6340   -5.2930    2.9560 hc        1 MOL      0.010240
    164 H75        -3.6680   -3.8890    1.9290 hc        1 MOL      0.010240
    165 H76        -4.6800   -5.5700    0.1310 hc        1 MOL     -0.012396
    166 H77        -4.4520   -6.8270    1.3710 hc        1 MOL     -0.012396
    167 N15        -6.5990   -3.0770    4.3260 n         1 MOL     -0.241514
    168 C54        -6.7340   -2.4080    5.6020 c3        1 MOL     -0.174042
    169 H78        -7.2340   -1.4500    5.4580 h1        1 MOL      0.089875
    170 H79        -7.3240   -3.0270    6.2760 h1        1 MOL      0.089875
    171 H80        -5.7460   -2.2400    6.0310 h1        1 MOL      0.089875
    172 H81        -7.2240   -2.7090    3.6220 hn        1 MOL      0.261128
    173 Ca1         0.0820   -5.0630   -0.0530 Ca        1 MOL      1.747216
    174 O23         0.6580   -6.1100   -2.6380 oh        1 MOL     -0.802697
    175 H82         1.2610   -6.8440   -2.7930 ho        1 MOL      0.403233
    176 H83         0.7060   -5.6020   -3.4490 ho        1 MOL      0.403233
    177 O24         2.6310   -5.8580   -0.3650 oh        1 MOL     -0.802697
    178 H84         2.9340   -6.4650   -1.0460 ho        1 MOL      0.403233
    179 H85         3.4250   -5.6380    0.1350 ho        1 MOL      0.403233
    180 O25         0.1500   -7.9560    0.0080 oh        1 MOL     -0.802697
    181 H86        -0.5380   -8.5650    0.2730 ho        1 MOL      0.403233
    182 H87         0.2320   -8.0840   -0.9450 ho        1 MOL      0.403233
    183 O26         1.3330   -5.3700    2.4120 oh        1 MOL     -0.802697
    184 H88         2.2840   -5.2860    2.3620 ho        1 MOL      0.403233
    185 H89         1.1240   -5.1860    3.3290 ho        1 MOL      0.403233
    186 O27        -1.0530   -3.1700    1.5350 oh        1 MOL     -0.802697
    187 H90        -1.6820   -2.4650    1.3320 ho        1 MOL      0.403233
    188 H91        -0.2690   -2.7140    1.8280 ho        1 MOL      0.403233
@<TRIPOS>BOND
     1    1    2 1   
     2    1    4 1   
     3    1    5 1   
     4    1    6 1   
     5    2    3 2   
     6    2    7 1   
     7    7    8 1   
     8    7   15 1   
     9    8    9 1   
    10    8   11 1   
    11    8   16 1   
    12    9   10 2   
    13    9   19 1   
    14   11   12 1   
    15   11   17 1   
    16   11   18 1   
    17   12   13 1   
    18   12   14 1   
    19   19   20 1   
    20   19   28 1   
    21   20   21 1   
    22   20   23 1   
    23   20   29 1   
    24   21   22 2   
    25   21   41 1   
    26   23   24 1   
    27   23   30 1   
    28   23   31 1   
    29   24   25 1   
    30   24   32 1   
    31   24   33 1   
    32   25   26 1   
    33   25   34 1   
    34   25   35 1   
    35   26   27 1   
    36   26   36 1   
    37   26   37 1   
    38   27   38 1   
    39   27   39 1   
    40   27   40 1   
    41   41   42 1   
    42   41   49 1   
    43   42   43 1   
    44   42   45 1   
    45   42   50 1   
    46   43   44 2   
    47   43   53 1   
    48   45   46 1   
    49   45   51 1   
    50   45   52 1   
    51   46   47 1   
    52   46   48 1   
    53   53   54 1   
    54   53   57 1   
    55   54   55 1   
    56   54   58 1   
    57   54   59 1   
    58   55   56 2   
    59   55   60 1   
    60   60   61 1   
    61   60   68 1   
    62   61   62 1   
    63   61   64 1   
    64   61   69 1   
    65   62   63 2   
    66   62   74 1   
    67   64   65 1   
    68   64   70 1   
    69   64   71 1   
    70   65   66 1   
    71   65   67 2   
    72   66   72 1   
    73   66   73 1   
    74   74   75 1   
    75   74   78 1   
    76   75   76 1   
    77   75   79 1   
    78   75   80 1   
    79   76   77 2   
    80   76   81 1   
    81   81   82 1   
    82   81   93 1   
    83   82   83 1   
    84   82   85 1   
    85   82   94 1   
    86   83   84 2   
    87   83  102 1   
    88   85   86 1   
    89   85   95 1   
    90   85   96 1   
    91   86   87 ar  
    92   86   88 ar  
    93   87   89 ar  
    94   87   97 1   
    95   88   90 ar  
    96   88   98 1   
    97   89   91 ar  
    98   89   99 1   
    99   90   91 ar  
   100   90  100 1   
   101   91   92 1   
   102   92  101 1   
   103  102  103 1   
   104  102  110 1   
   105  103  104 1   
   106  103  106 1   
   107  103  111 1   
   108  104  105 2   
   109  104  121 1   
   110  106  107 1   
   111  106  108 1   
   112  106  112 1   
   113  107  109 1   
   114  107  113 1   
   115  107  114 1   
   116  108  115 1   
   117  108  116 1   
   118  108  117 1   
   119  109  118 1   
   120  109  119 1   
   121  109  120 1   
   122  121  122 1   
   123  121  127 1   
   124  122  123 1   
   125  122  125 1   
   126  122  128 1   
   127  123  124 2   
   128  123  132 1   
   129  125  126 1   
   130  125  129 1   
   131  125  130 1   
   132  126  131 1   
   133  132  133 1   
   134  132  137 1   
   135  133  134 1   
   136  133  136 1   
   137  133  138 1   
   138  134  135 2   
   139  134  142 1   
   140  136  139 1   
   141  136  140 1   
   142  136  141 1   
   143  142  143 1   
   144  142  147 1   
   145  143  144 1   
   146  143  146 1   
   147  143  148 1   
   148  144  145 2   
   149  144  152 1   
   150  146  149 1   
   151  146  150 1   
   152  146  151 1   
   153  152  153 1   
   154  152  161 1   
   155  153  154 1   
   156  153  156 1   
   157  153  162 1   
   158  154  155 2   
   159  154  167 1   
   160  156  157 1   
   161  156  163 1   
   162  156  164 1   
   163  157  158 1   
   164  157  165 1   
   165  157  166 1   
   166  158  159 1   
   167  158  160 1   
   168  167  168 1   
   169  167  172 1   
   170  168  169 1   
   171  168  170 1   
   172  168  171 1   
   173  174  175 1   
   174  174  176 1   
   175  177  178 1   
   176  177  179 1   
   177  180  181 1   
   178  180  182 1   
   179  183  184 1   
   180  183  185 1   
   181  186  187 1   
   182  186  188 1   
@<TRIPOS>SUBSTRUCTURE
     1 MOL         1 TEMP              0 ****  ****    0 ROOT
