@<TRIPOS>MOLECULE
MOL
  181   177     1     0     0
SMALL
resp


@<TRIPOS>ATOM
      1 C1          4.1550   -1.8640    3.8530 c3        1 MOL     -0.238015
      2 C2          5.5040   -1.1470    3.6220 c         1 MOL      0.634112
      3 O1          5.6740   -0.0540    4.1280 o         1 MOL     -0.611910
      4 H1          4.2440   -2.5380    4.7050 hc        1 MOL      0.067370
      5 H2          3.3790   -1.1260    4.0540 hc        1 MOL      0.067370
      6 H3          3.8900   -2.4360    2.9640 hc        1 MOL      0.067370
      7 N1          6.4860   -1.8760    3.0620 n         1 MOL     -0.504933
      8 C3          7.7540   -1.2200    2.7410 c3        1 MOL      0.370470
      9 C4          7.6320   -0.6780    1.3150 c         1 MOL      0.512621
     10 O2          7.4030   -1.4100    0.3350 o         1 MOL     -0.524346
     11 C5          8.8680   -2.1830    3.0340 c3        1 MOL     -0.370498
     12 C6          8.7350   -3.5600    2.4270 c         1 MOL      0.721786
     13 O3          9.2390   -3.9210    1.3520 o         1 MOL     -0.718107
     14 O4          7.9480   -4.3900    3.0310 o         1 MOL     -0.718107
     15 H4          6.3300   -2.8370    2.7990 hn        1 MOL      0.235765
     16 H5          8.0510   -0.4210    3.4250 h1        1 MOL     -0.003259
     17 H6          8.8920   -2.3420    4.1140 hc        1 MOL      0.052565
     18 H7          9.7150   -1.6890    2.5550 hc        1 MOL      0.052565
     19 N2          7.7190    0.6360    1.1390 n         1 MOL     -0.575370
     20 C7          7.5490    1.3260   -0.1120 c3        1 MOL      0.314089
     21 C8          6.0990    1.2360   -0.5740 c         1 MOL      0.519879
     22 O5          5.1480    1.0300    0.1540 o         1 MOL     -0.511802
     23 C9          8.0390    2.7700    0.0510 c3        1 MOL     -0.357151
     24 H8          8.0910    1.1540    1.9300 hn        1 MOL      0.283436
     25 H9          8.1850    0.8670   -0.8760 h1        1 MOL      0.032094
     26 H10         7.2750    3.3020    0.6310 hc        1 MOL      0.093279
     27 H11         8.9630    2.8900    0.6130 hc        1 MOL      0.093279
     28 H12         8.1320    3.4110   -0.8270 hc        1 MOL      0.093279
     29 N3          5.8440    1.3470   -1.8990 n         1 MOL     -0.657988
     30 C10         4.5640    1.0780   -2.5890 c3        1 MOL      0.268603
     31 C11         3.9490    2.1900   -3.5120 c         1 MOL      0.444100
     32 O6          2.8060    1.9860   -3.9560 o         1 MOL     -0.447351
     33 C12         4.8170   -0.1700   -3.4290 c3        1 MOL     -0.051872
     34 C13         3.6130   -0.9900   -3.7400 c         1 MOL      0.588012
     35 O7          3.5480   -1.5070   -4.8840 o         1 MOL     -0.671757
     36 O8          2.7900   -1.1830   -2.7960 o         1 MOL     -0.671757
     37 H13         6.6540    1.4780   -2.4820 hn        1 MOL      0.265410
     38 H14         3.7380    0.9650   -1.8990 h1        1 MOL      0.032207
     39 H15         5.5150   -0.8420   -2.9140 hc        1 MOL     -0.005774
     40 H16         5.4170    0.0290   -4.3140 hc        1 MOL     -0.005774
     41 N4          4.6430    3.2670   -3.7160 n         1 MOL     -0.397399
     42 C14         4.2440    4.3170   -4.6740 c3        1 MOL     -0.176344
     43 C15         2.9930    5.1070   -4.3580 c         1 MOL      0.628442
     44 O9          2.8190    6.1760   -4.8730 o         1 MOL     -0.594870
     45 H17         5.5780    3.3860   -3.3460 hn        1 MOL      0.299242
     46 H18         4.2480    4.0420   -5.7240 h1        1 MOL      0.106377
     47 H19         5.0350    5.0610   -4.5820 h1        1 MOL      0.106377
     48 N5          2.0060    4.6510   -3.5270 n         1 MOL     -0.526816
     49 C16         0.8420    5.4290   -3.1060 c3        1 MOL      0.447784
     50 C17         0.6160    5.1750   -1.6070 c         1 MOL      0.201156
     51 O10         1.1590    4.2130   -1.0490 o         1 MOL     -0.421172
     52 C18        -0.4150    4.8740   -3.8160 c3        1 MOL     -0.358039
     53 C19        -1.5320    5.8740   -3.8670 c         1 MOL      0.578534
     54 N6         -2.5390    5.5860   -4.6430 n         1 MOL     -0.716069
     55 O11        -1.5950    6.8960   -3.1200 o         1 MOL     -0.556128
     56 H20         2.1000    3.6780   -3.2540 hn        1 MOL      0.237314
     57 H21         1.0410    6.4890   -3.2310 h1        1 MOL     -0.013139
     58 H22        -0.7400    3.9490   -3.3290 hc        1 MOL      0.138657
     59 H23        -0.1910    4.5980   -4.8420 hc        1 MOL      0.138657
     60 H24        -2.5010    4.7160   -5.1540 hn        1 MOL      0.349799
     61 H25        -3.3260    6.2120   -4.7480 hn        1 MOL      0.349799
     62 N7          0.0440    6.1160   -0.8830 n         1 MOL     -0.148298
     63 C20        -0.1340    6.1290    0.5740 c3        1 MOL     -0.270203
     64 C21        -1.5700    5.7950    0.8660 c         1 MOL      0.784437
     65 O12        -2.3740    5.5560   -0.0450 o         1 MOL     -0.505805
     66 H26        -0.2030    6.9330   -1.4270 hn        1 MOL      0.211837
     67 H27         0.0510    7.1290    0.9460 h1        1 MOL      0.103287
     68 H28         0.4480    5.2720    0.9270 h1        1 MOL      0.103287
     69 N8         -1.8930    6.0430    2.1490 n         1 MOL     -0.565471
     70 C22        -3.3090    5.7700    2.6100 c3        1 MOL     -0.290439
     71 C23        -3.4630    4.4040    3.1620 c         1 MOL      0.661442
     72 O13        -4.5430    3.7820    3.0590 o         1 MOL     -0.588472
     73 C24        -3.6910    6.6800    3.7320 c3        1 MOL      0.539576
     74 C25        -3.0640    6.4750    5.1260 c3        1 MOL     -0.373674
     75 O14        -3.4910    8.0330    3.3750 oh        1 MOL     -0.606057
     76 H29        -1.2210    6.6020    2.6640 hn        1 MOL      0.292074
     77 H30        -3.9560    5.8600    1.7370 h1        1 MOL      0.149370
     78 H31        -4.7270    6.4510    3.9600 h1        1 MOL      0.007979
     79 H32        -2.5570    7.9750    3.1810 ho        1 MOL      0.358680
     80 H33        -3.2660    5.5800    5.7050 hc        1 MOL      0.080176
     81 H34        -1.9770    6.4410    5.0690 hc        1 MOL      0.080176
     82 H35        -3.2920    7.2760    5.8260 hc        1 MOL      0.080176
     83 N9         -2.4270    3.7200    3.6980 n         1 MOL     -0.472093
     84 C26        -2.4580    2.2010    3.8320 c3        1 MOL      0.018993
     85 C27        -1.6240    1.4670    2.7410 c         1 MOL      0.646781
     86 O15        -0.5370    1.9270    2.3650 o         1 MOL     -0.546357
     87 C28        -2.0570    1.8700    5.3110 c3        1 MOL      0.067105
     88 C29        -3.0270    2.2640    6.4810 c3        1 MOL     -0.266738
     89 C30        -1.9190    0.3830    5.3250 c3        1 MOL     -0.119835
     90 C31        -4.5430    1.9420    6.3470 c3        1 MOL      0.065681
     91 H36        -1.5640    4.2210    3.8120 hn        1 MOL      0.245975
     92 H37        -3.5030    1.9510    3.6660 h1        1 MOL      0.094354
     93 H38        -1.0500    2.2140    5.5340 hc        1 MOL      0.050895
     94 H39        -3.0180    3.3300    6.6710 hc        1 MOL      0.075690
     95 H40        -2.6900    1.7300    7.3610 hc        1 MOL      0.075690
     96 H41        -2.7980   -0.0860    4.8730 hc        1 MOL      0.037260
     97 H42        -1.0280    0.0770    4.7790 hc        1 MOL      0.037260
     98 H43        -1.6590    0.0390    6.3180 hc        1 MOL      0.037260
     99 H44        -5.0770    2.3420    5.4850 hc        1 MOL     -0.007687
    100 H45        -4.6750    0.8520    6.3380 hc        1 MOL     -0.007687
    101 H46        -5.1390    2.2660    7.2010 hc        1 MOL     -0.007687
    102 N10        -2.2180    0.4010    2.1830 n         1 MOL     -0.691668
    103 C32        -1.6010   -0.4180    1.0730 c3        1 MOL      0.434333
    104 C33        -2.7160   -0.9430    0.1520 c         1 MOL      0.410414
    105 O16        -2.5850   -1.8980   -0.6010 o         1 MOL     -0.390676
    106 C34        -0.7470   -1.5140    1.6610 c3        1 MOL     -0.021122
    107 C35         0.3430   -2.0810    0.7310 c         1 MOL      0.605696
    108 O17         0.5270   -1.6360   -0.3610 o         1 MOL     -0.726487
    109 O18         0.9850   -3.0730    1.1220 o         1 MOL     -0.726487
    110 H47        -2.9460    0.0420    2.7750 hn        1 MOL      0.298972
    111 H48        -1.0110    0.2630    0.4440 h1        1 MOL      0.030161
    112 H49        -1.4130   -2.3230    1.9720 hc        1 MOL     -0.020044
    113 H50        -0.2700   -1.1390    2.5700 hc        1 MOL     -0.020044
    114 N11        -3.9220   -0.3330    0.1950 n         1 MOL     -0.523207
    115 C36        -5.0680   -0.6560   -0.7050 c3        1 MOL      0.180248
    116 C37        -5.3340   -2.1350   -0.5860 c         1 MOL      0.426527
    117 O19        -5.3300   -2.7800    0.4610 o         1 MOL     -0.564295
    118 C38        -6.2780    0.1680   -0.2210 c3        1 MOL     -0.330302
    119 C39        -7.4600   -0.1970   -1.1450 ca        1 MOL      0.099871
    120 C40        -8.3900   -1.2490   -0.8370 ca        1 MOL     -0.174205
    121 C41        -7.4590    0.2950   -2.4520 ca        1 MOL     -0.174205
    122 C42        -9.2350   -1.8170   -1.8220 ca        1 MOL     -0.132065
    123 C43        -8.3990   -0.1120   -3.3940 ca        1 MOL     -0.132065
    124 C44        -9.3910   -1.1300   -3.0380 ca        1 MOL     -0.087236
    125 H51        -3.9720    0.5910    0.5970 hn        1 MOL      0.278612
    126 H52        -4.6970   -0.3340   -1.6800 h1        1 MOL      0.075059
    127 H53        -6.0750    1.2320   -0.2950 hc        1 MOL      0.137313
    128 H54        -6.5720   -0.1460    0.7820 hc        1 MOL      0.137313
    129 H55        -8.2520   -1.8020    0.0770 ha        1 MOL      0.123947
    130 H56        -6.8210    1.1350   -2.6940 ha        1 MOL      0.123947
    131 H57        -9.8890   -2.6390   -1.5710 ha        1 MOL      0.118989
    132 H58        -8.4660    0.3710   -4.3590 ha        1 MOL      0.118989
    133 H59       -10.1820   -1.3840   -3.7210 ha        1 MOL      0.096246
    134 N12        -5.5560   -2.8860   -1.7150 n         1 MOL      0.141275
    135 C45        -6.0730   -4.2810   -1.6910 c3        1 MOL      0.021255
    136 C46        -5.1480   -5.3300   -1.0000 c         1 MOL      0.330926
    137 O20        -5.6310   -6.4570   -0.7650 o         1 MOL     -0.526886
    138 C47        -6.3930   -4.6060   -3.2000 c3        1 MOL     -0.219730
    139 C48        -5.4050   -3.6630   -3.9470 c3        1 MOL      0.103919
    140 C49        -5.5390   -2.4260   -3.0720 c3        1 MOL     -0.204686
    141 H60        -7.0260   -4.2190   -1.1730 h1        1 MOL      0.068314
    142 H61        -6.1230   -5.6370   -3.4380 hc        1 MOL      0.071057
    143 H62        -7.4210   -4.3520   -3.4810 hc        1 MOL      0.071057
    144 H63        -4.3640   -4.0070   -3.9890 hc        1 MOL      0.016812
    145 H64        -5.6870   -3.5610   -4.9950 hc        1 MOL      0.016812
    146 H65        -4.6820   -1.7820   -3.2560 h1        1 MOL      0.048924
    147 H66        -6.5040   -1.9870   -3.3340 h1        1 MOL      0.048924
    148 N13        -3.9460   -4.9220   -0.5480 n         1 MOL     -0.151538
    149 C50        -2.9200   -5.6980    0.1280 c3        1 MOL     -0.004513
    150 C51        -3.2310   -5.7630    1.5990 c         1 MOL      0.362157
    151 O21        -2.9290   -6.7180    2.2670 o         1 MOL     -0.519276
    152 C52        -1.5140   -5.0530   -0.0730 c3        1 MOL      0.167127
    153 C53        -0.9530   -5.4920   -1.4640 c3        1 MOL     -0.096532
    154 C54         0.4110   -4.8500   -1.7120 c         1 MOL      0.657556
    155 O22         1.3830   -5.2990   -1.1150 o         1 MOL     -0.725018
    156 O23         0.5510   -3.9550   -2.5760 o         1 MOL     -0.725018
    157 H67        -3.6800   -3.9630   -0.7220 hn        1 MOL      0.070484
    158 H68        -2.8170   -6.7180   -0.2210 h1        1 MOL      0.089367
    159 H69        -0.8210   -5.5230    0.6150 hc        1 MOL     -0.016220
    160 H70        -1.5320   -3.9650    0.0290 hc        1 MOL     -0.016220
    161 H71        -1.6710   -5.1410   -2.2060 hc        1 MOL     -0.002776
    162 H72        -0.9800   -6.5760   -1.5300 hc        1 MOL     -0.002776
    163 N14        -3.8500   -4.6800    2.1880 n         1 MOL     -0.153095
    164 C55        -4.1710   -4.5720    3.6420 c3        1 MOL     -0.148884
    165 H73        -4.0050   -5.5360    4.1220 h1        1 MOL      0.061101
    166 H74        -3.5280   -3.8220    4.1020 h1        1 MOL      0.061101
    167 H75        -5.2150   -4.2810    3.7640 h1        1 MOL      0.061101
    168 H76        -4.1870   -3.9310    1.5900 hn        1 MOL      0.201936
    169 Ca1         2.6500   -3.0640   -0.8310 Ca        1 MOL      1.774571
    170 O24         3.0630   -0.6690    0.4800 oh        1 MOL     -0.858594
    171 H77         3.8590   -0.2100    0.2150 ho        1 MOL      0.425531
    172 H78         2.3850    0.0200    0.4940 ho        1 MOL      0.425531
    173 O25         4.0530   -4.6400    0.8170 oh        1 MOL     -0.858594
    174 H79         3.8230   -4.7910    1.7380 ho        1 MOL      0.425531
    175 H80         4.9880   -4.8400    0.7560 ho        1 MOL      0.425531
    176 O26         4.3530   -4.5900   -2.3400 oh        1 MOL     -0.858594
    177 H81         4.7980   -5.4310   -2.2230 ho        1 MOL      0.425531
    178 H82         4.6850   -4.2520   -3.1710 ho        1 MOL      0.425531
    179 O27         5.2180   -2.3830   -0.7180 oh        1 MOL     -0.858594
    180 H83         5.7150   -1.6410   -0.3920 ho        1 MOL      0.425531
    181 H84         5.8010   -3.1340   -0.6040 ho        1 MOL      0.425531
@<TRIPOS>BOND
     1    1    2 1   
     2    1    4 1   
     3    1    5 1   
     4    1    6 1   
     5    2    3 2   
     6    2    7 1   
     7    7    8 1   
     8    7   15 1   
     9    8    9 1   
    10    8   11 1   
    11    8   16 1   
    12    9   10 2   
    13    9   19 1   
    14   11   12 1   
    15   11   17 1   
    16   11   18 1   
    17   12   13 1   
    18   12   14 1   
    19   19   20 1   
    20   19   24 1   
    21   20   21 1   
    22   20   23 1   
    23   20   25 1   
    24   21   22 2   
    25   21   29 1   
    26   23   26 1   
    27   23   27 1   
    28   23   28 1   
    29   29   30 1   
    30   29   37 1   
    31   30   31 1   
    32   30   33 1   
    33   30   38 1   
    34   31   32 2   
    35   31   41 1   
    36   33   34 1   
    37   33   39 1   
    38   33   40 1   
    39   34   35 1   
    40   34   36 1   
    41   41   42 1   
    42   41   45 1   
    43   42   43 1   
    44   42   46 1   
    45   42   47 1   
    46   43   44 2   
    47   43   48 1   
    48   48   49 1   
    49   48   56 1   
    50   49   50 1   
    51   49   52 1   
    52   49   57 1   
    53   50   51 2   
    54   50   62 1   
    55   52   53 1   
    56   52   58 1   
    57   52   59 1   
    58   53   54 1   
    59   53   55 2   
    60   54   60 1   
    61   54   61 1   
    62   62   63 1   
    63   62   66 1   
    64   63   64 1   
    65   63   67 1   
    66   63   68 1   
    67   64   65 2   
    68   64   69 1   
    69   69   70 1   
    70   69   76 1   
    71   70   71 1   
    72   70   73 1   
    73   70   77 1   
    74   71   72 2   
    75   71   83 1   
    76   73   74 1   
    77   73   75 1   
    78   73   78 1   
    79   74   80 1   
    80   74   81 1   
    81   74   82 1   
    82   75   79 1   
    83   83   84 1   
    84   83   91 1   
    85   84   85 1   
    86   84   87 1   
    87   84   92 1   
    88   85   86 2   
    89   85  102 1   
    90   87   88 1   
    91   87   89 1   
    92   87   93 1   
    93   88   90 1   
    94   88   94 1   
    95   88   95 1   
    96   89   96 1   
    97   89   97 1   
    98   89   98 1   
    99   90   99 1   
   100   90  100 1   
   101   90  101 1   
   102  102  103 1   
   103  102  110 1   
   104  103  104 1   
   105  103  106 1   
   106  103  111 1   
   107  104  105 2   
   108  104  114 1   
   109  106  107 1   
   110  106  112 1   
   111  106  113 1   
   112  107  108 1   
   113  107  109 1   
   114  114  115 1   
   115  114  125 1   
   116  115  116 1   
   117  115  118 1   
   118  115  126 1   
   119  116  117 2   
   120  116  134 1   
   121  118  119 1   
   122  118  127 1   
   123  118  128 1   
   124  119  120 ar  
   125  119  121 ar  
   126  120  122 ar  
   127  120  129 1   
   128  121  123 ar  
   129  121  130 1   
   130  122  124 ar  
   131  122  131 1   
   132  123  124 ar  
   133  123  132 1   
   134  124  133 1   
   135  134  135 1   
   136  134  140 1   
   137  135  136 1   
   138  135  138 1   
   139  135  141 1   
   140  136  137 2   
   141  136  148 1   
   142  138  139 1   
   143  138  142 1   
   144  138  143 1   
   145  139  140 1   
   146  139  144 1   
   147  139  145 1   
   148  140  146 1   
   149  140  147 1   
   150  148  149 1   
   151  148  157 1   
   152  149  150 1   
   153  149  152 1   
   154  149  158 1   
   155  150  151 2   
   156  150  163 1   
   157  152  153 1   
   158  152  159 1   
   159  152  160 1   
   160  153  154 1   
   161  153  161 1   
   162  153  162 1   
   163  154  155 1   
   164  154  156 1   
   165  163  164 1   
   166  163  168 1   
   167  164  165 1   
   168  164  166 1   
   169  164  167 1   
   170  170  171 1   
   171  170  172 1   
   172  173  174 1   
   173  173  175 1   
   174  176  177 1   
   175  176  178 1   
   176  179  180 1   
   177  179  181 1   
@<TRIPOS>SUBSTRUCTURE
     1 MOL         1 TEMP              0 ****  ****    0 ROOT
