@<TRIPOS>MOLECULE
MOL
  195   189     1     0     0
SMALL
resp


@<TRIPOS>ATOM
      1 C1         -2.9450    3.3560   -3.3030 c3        1 MOL     -0.536995
      2 C2         -2.1770    3.7810   -2.0240 c         1 MOL      0.878633
      3 O1         -1.3040    3.0680   -1.4500 o         1 MOL     -0.553544
      4 H1         -2.2310    3.1070   -4.0890 hc        1 MOL      0.118976
      5 H2         -3.5620    2.4840   -3.0850 hc        1 MOL      0.118976
      6 H3         -3.5800    4.1770   -3.6360 hc        1 MOL      0.118976
      7 N1         -2.5660    4.9440   -1.4470 n         1 MOL     -0.697200
      8 C3         -2.0510    5.6720   -0.2140 c3        1 MOL      0.257924
      9 C4         -0.5360    5.9910   -0.1950 c         1 MOL      0.653407
     10 O2          0.1070    5.8920    0.8400 o         1 MOL     -0.459608
     11 C5         -2.5960    5.1810    1.1580 c3        1 MOL     -0.701112
     12 C6         -4.0450    4.6810    1.0330 c         1 MOL      1.131983
     13 O3         -4.9250    5.4800    0.7100 o         1 MOL     -0.850117
     14 O4         -4.3510    3.5030    1.1360 o         1 MOL     -0.850117
     15 H4         -3.1590    5.5500   -1.9840 hn        1 MOL      0.266093
     16 H5         -2.5680    6.6230   -0.2110 h1        1 MOL      0.038807
     17 H6         -2.5630    5.9680    1.9160 hc        1 MOL      0.171767
     18 H7         -2.0170    4.3110    1.4670 hc        1 MOL      0.171767
     19 N2          0.0180    6.2820   -1.3940 n         1 MOL     -0.677455
     20 C7          1.4470    6.4440   -1.5640 c3        1 MOL     -0.158669
     21 C8          1.9640    7.4970   -0.5320 c         1 MOL      0.471266
     22 O5          1.2720    8.4740   -0.2870 o         1 MOL     -0.545001
     23 C9          1.8090    6.6440   -3.0360 c3        1 MOL      0.101592
     24 C10         1.2220    7.9410   -3.6470 c3        1 MOL      0.096227
     25 C11         1.5100    5.4770   -3.9450 c3        1 MOL     -0.116823
     26 C12         1.9800    8.4100   -4.8960 c3        1 MOL      0.064707
     27 H8         -0.5010    6.4090   -2.2430 hn        1 MOL      0.362824
     28 H9          1.8780    5.4700   -1.3640 h1        1 MOL      0.182292
     29 H10         2.9010    6.6350   -2.9970 hc        1 MOL      0.070932
     30 H11         1.3400    8.7590   -2.9370 hc        1 MOL     -0.025871
     31 H12         0.1570    7.8610   -3.7990 hc        1 MOL     -0.025871
     32 H13         2.1070    5.6370   -4.8450 hc        1 MOL      0.015828
     33 H14         1.7320    4.5080   -3.4930 hc        1 MOL      0.015828
     34 H15         0.4790    5.3040   -4.2450 hc        1 MOL      0.015828
     35 H16         1.6270    7.8000   -5.7250 hc        1 MOL     -0.032549
     36 H17         1.7140    9.4410   -5.0960 hc        1 MOL     -0.032549
     37 H18         3.0530    8.2130   -4.8890 hc        1 MOL     -0.032549
     38 N3          3.1580    7.3410    0.0760 n         1 MOL     -0.252393
     39 C13         4.1270    6.2890   -0.1050 c3        1 MOL     -0.005003
     40 C14         3.7230    4.9010    0.2910 c         1 MOL      0.477915
     41 O6          4.4080    3.8850   -0.0080 o         1 MOL     -0.585017
     42 C15         5.3600    6.8190    0.6080 c3        1 MOL     -0.198871
     43 C16         5.6580    8.2150    0.0090 c         1 MOL      0.664215
     44 O7          5.9330    8.2350   -1.2060 o         1 MOL     -0.701735
     45 O8          5.5690    9.2820    0.6460 o         1 MOL     -0.701735
     46 H19         3.2410    7.9340    0.8860 hn        1 MOL      0.255034
     47 H20         4.4430    6.2850   -1.1510 h1        1 MOL      0.042951
     48 H21         6.1840    6.1230    0.4770 hc        1 MOL      0.047313
     49 H22         5.1270    6.8750    1.6700 hc        1 MOL      0.047313
     50 N4          2.6400    4.7340    1.0520 n         1 MOL     -0.246341
     51 C17         2.1500    3.3950    1.5750 c3        1 MOL     -0.329828
     52 C18         3.0530    2.8800    2.6590 c         1 MOL      0.677027
     53 O9          3.6570    3.6620    3.4200 o         1 MOL     -0.571261
     54 H23         1.9300    5.4550    1.0910 hn        1 MOL      0.191857
     55 H24         2.0160    2.6750    0.7660 h1        1 MOL      0.153787
     56 H25         1.2670    3.6180    2.1760 h1        1 MOL      0.153787
     57 N5          3.1840    1.5440    2.6070 n         1 MOL     -0.594249
     58 C19         4.1900    0.8150    3.4420 c3        1 MOL      0.103324
     59 C20         5.5370    0.5570    2.7080 c         1 MOL      0.353584
     60 O10         6.4870    0.0340    3.2990 o         1 MOL     -0.518822
     61 C21         3.6080   -0.4180    4.0350 c3        1 MOL     -0.082298
     62 C22         3.3340   -1.6260    3.0800 c         1 MOL      0.655863
     63 O11         3.4730   -1.5010    1.8200 o         1 MOL     -0.661085
     64 O12         2.9190   -2.6670    3.5580 o         1 MOL     -0.661085
     65 H26         2.7040    1.0770    1.8530 hn        1 MOL      0.302837
     66 H27         4.3980    1.4620    4.2930 h1        1 MOL      0.087623
     67 H28         2.7540   -0.1420    4.6530 hc        1 MOL      0.011046
     68 H29         4.2350   -0.7590    4.8580 hc        1 MOL      0.011046
     69 N6          5.5260    0.8010    1.3940 n         1 MOL     -0.126804
     70 C23         6.5830    0.4130    0.3630 c3        1 MOL     -0.423972
     71 C24         6.8200   -1.1620    0.2130 c         1 MOL      0.596975
     72 O13         7.7640   -1.4610   -0.5640 o         1 MOL     -0.594398
     73 H30         4.6590    1.1940    1.0370 hn        1 MOL      0.257009
     74 H31         7.4970    0.9140    0.6850 h1        1 MOL      0.178311
     75 H32         6.1750    0.8830   -0.5370 h1        1 MOL      0.178311
     76 N7          6.0440   -2.0340    0.9110 n         1 MOL     -0.061124
     77 C25         6.0940   -3.4580    0.8960 c3        1 MOL      0.166837
     78 C26         6.3870   -4.1460   -0.4200 c         1 MOL      0.408960
     79 O14         7.0490   -5.1830   -0.4100 o         1 MOL     -0.521312
     80 C27         7.1370   -3.9890    1.9090 c3        1 MOL     -0.020030
     81 C28         6.9040   -3.3590    3.3040 c3        1 MOL     -0.080869
     82 C29         7.6770   -4.0980    4.3370 c         1 MOL      0.658060
     83 N8          7.1550   -4.1310    5.5100 n         1 MOL     -0.778438
     84 O15         8.7970   -4.5930    4.1770 o         1 MOL     -0.616239
     85 H33         5.3660   -1.5030    1.4260 hn        1 MOL     -0.009724
     86 H34         5.0870   -3.7920    1.1130 h1        1 MOL      0.059121
     87 H35         8.1440   -3.6660    1.6380 hc        1 MOL      0.022986
     88 H36         7.0190   -5.0600    2.0120 hc        1 MOL      0.022986
     89 H37         5.8320   -3.4730    3.4930 hc        1 MOL      0.024336
     90 H38         7.1760   -2.3100    3.2740 hc        1 MOL      0.024336
     91 H39         6.2490   -3.7140    5.6730 hn        1 MOL      0.342725
     92 H40         7.7980   -4.3320    6.2660 hn        1 MOL      0.342725
     93 N9          5.8570   -3.6190   -1.5190 n         1 MOL     -0.311704
     94 C30         5.7780   -4.4260   -2.7590 c3        1 MOL     -0.180685
     95 C31         4.3450   -4.5770   -3.3350 c         1 MOL      0.522577
     96 O16         4.1760   -5.3160   -4.2810 o         1 MOL     -0.574140
     97 C32         6.8020   -3.9590   -3.7990 c3        1 MOL      0.271598
     98 C33         6.5490   -2.5030   -4.1410 c3        1 MOL     -0.295620
     99 C34         8.2910   -4.0200   -3.3510 c3        1 MOL     -0.295620
    100 H41         5.3170   -2.7660   -1.5020 hn        1 MOL      0.240892
    101 H42         5.9450   -5.4850   -2.5520 h1        1 MOL      0.136281
    102 H43         6.6410   -4.4680   -4.7540 hc        1 MOL     -0.029989
    103 H44         6.8550   -1.8760   -3.3060 hc        1 MOL      0.066366
    104 H45         7.1160   -2.1860   -5.0140 hc        1 MOL      0.066366
    105 H46         5.4790   -2.2790   -4.2020 hc        1 MOL      0.066366
    106 H47         8.4300   -3.5250   -2.3820 hc        1 MOL      0.066366
    107 H48         8.6270   -5.0610   -3.3720 hc        1 MOL      0.066366
    108 H49         8.8960   -3.5150   -4.0980 hc        1 MOL      0.066366
    109 N10         3.3510   -3.9870   -2.6810 n         1 MOL     -0.297492
    110 C35         1.8860   -4.0920   -2.9830 c3        1 MOL      0.273736
    111 C36         1.1210   -4.0220   -1.6830 c         1 MOL      0.452609
    112 O17         1.7370   -4.1500   -0.5950 o         1 MOL     -0.523764
    113 C37         1.4260   -2.9670   -3.9340 c3        1 MOL     -0.467247
    114 C38         1.5810   -1.5430   -3.3560 c         1 MOL      0.587312
    115 N11         2.3690   -0.7820   -4.0410 n         1 MOL     -0.634240
    116 O18         1.0480   -1.1550   -2.3250 o         1 MOL     -0.481578
    117 H50         3.6530   -3.6600   -1.7750 hn        1 MOL      0.193892
    118 H51         1.6720   -5.0590   -3.4190 h1        1 MOL      0.037792
    119 H52         0.4100   -3.1900   -4.2610 hc        1 MOL      0.118354
    120 H53         2.0370   -3.0720   -4.8270 hc        1 MOL      0.118354
    121 H54         2.8290   -1.1380   -4.8770 hn        1 MOL      0.313577
    122 H55         2.2690    0.2200   -4.0710 hn        1 MOL      0.313577
    123 N12        -0.1850   -3.9490   -1.6540 n         1 MOL     -0.507853
    124 C39        -1.0120   -4.0350   -0.4200 c3        1 MOL      0.259869
    125 C40        -2.4950   -4.3050   -0.7490 c         1 MOL      0.334327
    126 O19        -2.9880   -4.0270   -1.8310 o         1 MOL     -0.571631
    127 C41        -1.0460   -2.7840    0.4710 c3        1 MOL     -0.037439
    128 C42        -1.8300   -2.9380    1.7250 ca        1 MOL     -0.077392
    129 C43        -3.1150   -2.3920    1.8450 ca        1 MOL     -0.109964
    130 C44        -1.2570   -3.7200    2.7370 ca        1 MOL     -0.109964
    131 C45        -3.8630   -2.6880    3.0090 ca        1 MOL     -0.277957
    132 C46        -2.0340   -3.9270    3.9240 ca        1 MOL     -0.277957
    133 C47        -3.2980   -3.4500    4.0080 ca        1 MOL      0.366888
    134 O20        -4.0820   -3.7190    5.0780 oh        1 MOL     -0.529996
    135 H56        -0.6640   -3.9620   -2.5400 hn        1 MOL      0.286997
    136 H57        -0.6440   -4.8330    0.2250 h1        1 MOL      0.024545
    137 H58        -1.3520   -1.8790   -0.0510 hc        1 MOL      0.076297
    138 H59        -0.0170   -2.6000    0.7800 hc        1 MOL      0.076297
    139 H60        -3.5650   -1.6820    1.1700 ha        1 MOL      0.159435
    140 H61        -0.2830   -4.1290    2.5180 ha        1 MOL      0.159435
    141 H62        -4.7820   -2.1730    3.2540 ha        1 MOL      0.148819
    142 H63        -1.6650   -4.5380    4.7450 ha        1 MOL      0.148819
    143 H64        -4.8220   -3.1100    5.1040 ho        1 MOL      0.365025
    144 N13        -3.2870   -5.0230    0.0610 n         1 MOL     -0.256261
    145 C48        -4.6540   -5.4920   -0.2450 c3        1 MOL      0.364925
    146 C49        -5.5350   -5.0290    0.8440 c         1 MOL      0.415446
    147 O21        -5.7410   -5.7700    1.8130 o         1 MOL     -0.530207
    148 C50        -4.7170   -7.0440   -0.3780 c3        1 MOL     -0.187360
    149 C51        -3.7960   -7.6110   -1.4460 c3        1 MOL     -0.119064
    150 C52        -3.9890   -9.1030   -1.6610 c         1 MOL      0.769213
    151 O22        -4.5120   -9.4130   -2.7310 o         1 MOL     -0.705810
    152 O23        -3.5450   -9.9950   -0.9680 o         1 MOL     -0.705810
    153 H65        -2.8330   -5.4150    0.8760 hn        1 MOL      0.214885
    154 H66        -4.9570   -5.1430   -1.2290 h1        1 MOL      0.092968
    155 H67        -5.7400   -7.2710   -0.6790 hc        1 MOL      0.039171
    156 H68        -4.4080   -7.4710    0.5790 hc        1 MOL      0.039171
    157 H69        -2.7530   -7.4420   -1.1950 hc        1 MOL      0.002551
    158 H70        -3.9840   -7.1670   -2.4290 hc        1 MOL      0.002551
    159 N14        -6.3340   -3.9680    0.6400 n         1 MOL     -0.623787
    160 C53        -6.1120   -2.9680   -0.3600 c3        1 MOL      0.273282
    161 C54        -6.5830   -3.4640   -1.7320 c         1 MOL      0.375136
    162 O24        -7.4150   -4.3790   -1.8340 o         1 MOL     -0.522307
    163 C55        -6.7760   -1.5590   -0.0740 c3        1 MOL     -0.066296
    164 C56        -6.6240   -0.9820    1.3640 c3        1 MOL     -0.043196
    165 C57        -7.5470    0.1680    1.6780 c         1 MOL      0.680290
    166 O25        -8.6680   -0.0310    2.2170 o         1 MOL     -0.687310
    167 O26        -7.1440    1.3140    1.5060 o         1 MOL     -0.687310
    168 H71        -7.1290   -4.0100    1.2600 hn        1 MOL      0.365401
    169 H72        -5.0430   -2.7870   -0.4410 h1        1 MOL     -0.041258
    170 H73        -7.8330   -1.5720   -0.3380 hc        1 MOL     -0.015832
    171 H74        -6.3620   -0.8340   -0.7720 hc        1 MOL     -0.015832
    172 H75        -5.6160   -0.6200    1.5450 hc        1 MOL     -0.008103
    173 H76        -6.9860   -1.7920    1.9930 hc        1 MOL     -0.008103
    174 N15        -5.9500   -2.9720   -2.7490 n         1 MOL     -0.210566
    175 C58        -6.2170   -3.1970   -4.1380 c3        1 MOL     -0.281053
    176 H77        -7.2770   -3.0350   -4.3350 h1        1 MOL      0.112784
    177 H78        -5.6280   -2.5040   -4.7380 h1        1 MOL      0.112784
    178 H79        -5.9510   -4.2210   -4.3990 h1        1 MOL      0.112784
    179 H80        -5.3040   -2.2120   -2.5660 hn        1 MOL      0.258242
    180 Ca1        -7.0070    3.9250    0.7420 Ca        1 MOL      1.686814
    181 O27        -8.0890    6.4920    0.9080 oh        1 MOL     -0.815988
    182 H81        -9.0160    6.7340    0.8570 ho        1 MOL      0.387756
    183 H82        -7.6800    7.2270    1.3740 ho        1 MOL      0.387756
    184 O28        -6.4910    2.2900   -1.2590 oh        1 MOL     -0.815988
    185 O29        -9.3790    3.6160    2.0910 oh        1 MOL     -0.815988
    186 H83        -6.1590    2.5530   -2.1120 ho        1 MOL      0.387756
    187 H84        -9.8330    4.1330    2.7580 ho        1 MOL      0.387756
    188 H85        -6.9850    1.4840   -1.4410 ho        1 MOL      0.387756
    189 H86        -9.8400    2.7800    2.0820 ho        1 MOL      0.387756
    190 O30        -6.4280    4.4060    3.3460 oh        1 MOL     -0.815988
    191 H87        -6.0710    3.7210    3.9200 ho        1 MOL      0.387756
    192 H88        -6.0790    5.2230    3.7150 ho        1 MOL      0.387756
    193 O31        -9.1230    3.9810   -0.9920 oh        1 MOL     -0.815988
    194 H89        -9.7510    3.3780   -1.3940 ho        1 MOL      0.387756
    195 H90        -8.9030    4.5950   -1.6850 ho        1 MOL      0.387756
@<TRIPOS>BOND
     1    1    2 1   
     2    1    4 1   
     3    1    5 1   
     4    1    6 1   
     5    2    3 2   
     6    2    7 1   
     7    7    8 1   
     8    7   15 1   
     9    8    9 1   
    10    8   11 1   
    11    8   16 1   
    12    9   10 2   
    13    9   19 1   
    14   11   12 1   
    15   11   17 1   
    16   11   18 1   
    17   12   13 1   
    18   12   14 1   
    19   19   20 1   
    20   19   27 1   
    21   20   21 1   
    22   20   23 1   
    23   20   28 1   
    24   21   22 2   
    25   21   38 1   
    26   23   24 1   
    27   23   25 1   
    28   23   29 1   
    29   24   26 1   
    30   24   30 1   
    31   24   31 1   
    32   25   32 1   
    33   25   33 1   
    34   25   34 1   
    35   26   35 1   
    36   26   36 1   
    37   26   37 1   
    38   38   39 1   
    39   38   46 1   
    40   39   40 1   
    41   39   42 1   
    42   39   47 1   
    43   40   41 2   
    44   40   50 1   
    45   42   43 1   
    46   42   48 1   
    47   42   49 1   
    48   43   44 1   
    49   43   45 1   
    50   50   51 1   
    51   50   54 1   
    52   51   52 1   
    53   51   55 1   
    54   51   56 1   
    55   52   53 2   
    56   52   57 1   
    57   57   58 1   
    58   57   65 1   
    59   58   59 1   
    60   58   61 1   
    61   58   66 1   
    62   59   60 2   
    63   59   69 1   
    64   61   62 1   
    65   61   67 1   
    66   61   68 1   
    67   62   63 1   
    68   62   64 1   
    69   69   70 1   
    70   69   73 1   
    71   70   71 1   
    72   70   74 1   
    73   70   75 1   
    74   71   72 2   
    75   71   76 1   
    76   76   77 1   
    77   76   85 1   
    78   77   78 1   
    79   77   80 1   
    80   77   86 1   
    81   78   79 2   
    82   78   93 1   
    83   80   81 1   
    84   80   87 1   
    85   80   88 1   
    86   81   82 1   
    87   81   89 1   
    88   81   90 1   
    89   82   83 1   
    90   82   84 2   
    91   83   91 1   
    92   83   92 1   
    93   93   94 1   
    94   93  100 1   
    95   94   95 1   
    96   94   97 1   
    97   94  101 1   
    98   95   96 2   
    99   95  109 1   
   100   97   98 1   
   101   97   99 1   
   102   97  102 1   
   103   98  103 1   
   104   98  104 1   
   105   98  105 1   
   106   99  106 1   
   107   99  107 1   
   108   99  108 1   
   109  109  110 1   
   110  109  117 1   
   111  110  111 1   
   112  110  113 1   
   113  110  118 1   
   114  111  112 2   
   115  111  123 1   
   116  113  114 1   
   117  113  119 1   
   118  113  120 1   
   119  114  115 1   
   120  114  116 2   
   121  115  121 1   
   122  115  122 1   
   123  123  124 1   
   124  123  135 1   
   125  124  125 1   
   126  124  127 1   
   127  124  136 1   
   128  125  126 2   
   129  125  144 1   
   130  127  128 1   
   131  127  137 1   
   132  127  138 1   
   133  128  129 ar  
   134  128  130 ar  
   135  129  131 ar  
   136  129  139 1   
   137  130  132 ar  
   138  130  140 1   
   139  131  133 ar  
   140  131  141 1   
   141  132  133 ar  
   142  132  142 1   
   143  133  134 1   
   144  134  143 1   
   145  144  145 1   
   146  144  153 1   
   147  145  146 1   
   148  145  148 1   
   149  145  154 1   
   150  146  147 2   
   151  146  159 1   
   152  148  149 1   
   153  148  155 1   
   154  148  156 1   
   155  149  150 1   
   156  149  157 1   
   157  149  158 1   
   158  150  151 1   
   159  150  152 1   
   160  159  160 1   
   161  159  168 1   
   162  160  161 1   
   163  160  163 1   
   164  160  169 1   
   165  161  162 2   
   166  161  174 1   
   167  163  164 1   
   168  163  170 1   
   169  163  171 1   
   170  164  165 1   
   171  164  172 1   
   172  164  173 1   
   173  165  166 1   
   174  165  167 1   
   175  174  175 1   
   176  174  179 1   
   177  175  176 1   
   178  175  177 1   
   179  175  178 1   
   180  181  182 1   
   181  181  183 1   
   182  184  186 1   
   183  184  188 1   
   184  185  187 1   
   185  185  189 1   
   186  190  191 1   
   187  190  192 1   
   188  193  194 1   
   189  193  195 1   
@<TRIPOS>SUBSTRUCTURE
     1 MOL         1 TEMP              0 ****  ****    0 ROOT
