@<TRIPOS>MOLECULE
MOL
  181   177     1     0     0
SMALL
resp


@<TRIPOS>ATOM
      1 C1          7.6260   -4.6530    5.2580 c3        1 MOL     -0.431218
      2 C2          6.8450   -3.6810    4.4040 c         1 MOL      0.777064
      3 O1          5.8530   -3.0200    4.7600 o         1 MOL     -0.580078
      4 H1          7.1970   -4.6810    6.2600 hc        1 MOL      0.107856
      5 H2          7.5770   -5.6470    4.8140 hc        1 MOL      0.107856
      6 H3          8.6660   -4.3310    5.3180 hc        1 MOL      0.107856
      7 N1          7.0830   -3.6530    3.0690 n         1 MOL     -0.755237
      8 C3          8.4320   -3.8700    2.4910 c3        1 MOL      0.157193
      9 C4          8.4780   -4.4220    1.0250 c         1 MOL      0.601260
     10 O2          7.5930   -5.1550    0.5130 o         1 MOL     -0.550864
     11 C5          9.1380   -2.5540    2.5710 c3        1 MOL     -0.006113
     12 C6          8.4230   -1.3420    1.7830 c         1 MOL      0.580618
     13 O3          8.6440   -1.2480    0.5630 o         1 MOL     -0.708362
     14 O4          7.5940   -0.5840    2.3970 o         1 MOL     -0.708362
     15 H4          6.3830   -3.1880    2.5110 hn        1 MOL      0.527949
     16 H5          8.9340   -4.6320    3.0820 h1        1 MOL      0.016571
     17 H6         10.1690   -2.5760    2.2240 hc        1 MOL     -0.035235
     18 H7          9.1660   -2.2910    3.6300 hc        1 MOL     -0.035235
     19 N2          9.5810   -4.1550    0.3280 n         1 MOL     -0.713493
     20 C7          9.6920   -4.5240   -1.1280 c3        1 MOL      0.608690
     21 C8          8.5630   -4.0430   -2.1280 c         1 MOL      0.262885
     22 O5          8.4780   -4.5500   -3.2840 o         1 MOL     -0.547906
     23 C9         10.1250   -5.9970   -1.3530 c3        1 MOL     -0.363708
     24 H8         10.3990   -3.7740    0.7730 hn        1 MOL      0.330848
     25 H9         10.5300   -3.9990   -1.5700 h1        1 MOL     -0.059042
     26 H10        10.1640   -6.1210   -2.4370 hc        1 MOL      0.080039
     27 H11        11.0950   -6.1110   -0.8750 hc        1 MOL      0.080039
     28 H12         9.4670   -6.7520   -0.9330 hc        1 MOL      0.080039
     29 N3          7.6830   -3.1140   -1.7390 n         1 MOL     -0.102343
     30 C10         6.4750   -2.6910   -2.4410 c3        1 MOL      0.147966
     31 C11         6.5160   -1.2070   -2.8620 c         1 MOL      0.299967
     32 O6          7.4910   -0.5310   -2.5490 o         1 MOL     -0.467227
     33 C12         5.2950   -2.9470   -1.4820 c3        1 MOL     -0.568053
     34 C13         5.2850   -2.1940   -0.1750 c         1 MOL      1.020349
     35 O7          5.3250   -0.9540   -0.1720 o         1 MOL     -0.788377
     36 O8          5.2380   -2.7080    0.9490 o         1 MOL     -0.788377
     37 H13         8.0970   -2.6830   -0.9370 hn        1 MOL      0.064018
     38 H14         6.4120   -3.3080   -3.3260 h1        1 MOL      0.085863
     39 H15         5.3540   -3.9960   -1.2240 hc        1 MOL      0.149872
     40 H16         4.3440   -2.8410   -1.9990 hc        1 MOL      0.149872
     41 N4          5.4360   -0.6510   -3.4280 n         1 MOL     -0.251693
     42 C14         5.3600    0.6500   -4.0600 c3        1 MOL     -0.322265
     43 C15         5.0150    1.7470   -3.0280 c         1 MOL      0.692094
     44 O9          5.5510    1.7330   -1.9360 o         1 MOL     -0.637986
     45 H17         4.6930   -1.2840   -3.6910 hn        1 MOL      0.281720
     46 H18         4.5410    0.5500   -4.7730 h1        1 MOL      0.143251
     47 H19         6.2520    0.8760   -4.6370 h1        1 MOL      0.143251
     48 N5          4.2630    2.7390   -3.4130 n         1 MOL     -0.420864
     49 C16         4.0850    3.9780   -2.6900 c3        1 MOL      0.170678
     50 C17         2.9330    3.8630   -1.5850 c         1 MOL      0.441767
     51 O10         1.8950    3.2300   -1.9000 o         1 MOL     -0.447684
     52 C18         3.9170    5.0760   -3.6930 c3        1 MOL     -0.192777
     53 C19         4.0580    6.5070   -3.2180 c         1 MOL      0.579744
     54 N6          3.4060    6.8900   -2.2320 n         1 MOL     -0.663343
     55 O11         4.7710    7.2940   -3.8320 o         1 MOL     -0.606855
     56 H20         3.8020    2.6560   -4.3080 hn        1 MOL      0.249412
     57 H21         5.0040    4.1870   -2.1410 h1        1 MOL     -0.036726
     58 H22         2.9360    5.0210   -4.1440 hc        1 MOL      0.086396
     59 H23         4.7060    4.9780   -4.4380 hc        1 MOL      0.086396
     60 H24         2.7100    6.3090   -1.7770 hn        1 MOL      0.333184
     61 H25         3.4970    7.8460   -1.9010 hn        1 MOL      0.333184
     62 N7          3.2150    4.3880   -0.3950 n         1 MOL     -0.364658
     63 C20         2.1760    4.5570    0.5910 c3        1 MOL      0.017755
     64 C21         0.9410    5.3690    0.0550 c         1 MOL      0.530678
     65 O12         1.0640    6.0660   -0.9380 o         1 MOL     -0.552518
     66 H26         4.0290    4.9790   -0.3110 hn        1 MOL      0.234618
     67 H27         2.5510    5.1030    1.4540 h1        1 MOL      0.060465
     68 H28         1.8130    3.5830    0.9120 h1        1 MOL      0.060465
     69 N8         -0.2600    5.2380    0.5910 n         1 MOL     -0.348144
     70 C22        -0.6870    4.5360    1.7830 c3        1 MOL     -0.034835
     71 C23        -1.7840    3.4730    1.5590 c         1 MOL      0.536148
     72 O13        -2.5170    3.5700    0.6350 o         1 MOL     -0.469229
     73 C24        -0.9860    5.4880    2.9980 c3        1 MOL      0.377848
     74 C25         0.1880    6.4150    3.2220 c3        1 MOL     -0.202773
     75 O14        -2.0590    6.3430    2.6850 oh        1 MOL     -0.602948
     76 H29        -0.9340    5.6830   -0.0160 hn        1 MOL      0.320424
     77 H30         0.1100    3.8390    2.0380 h1        1 MOL     -0.027871
     78 H31        -1.2750    4.9360    3.8910 h1        1 MOL     -0.016324
     79 H32        -2.6750    6.2770    3.4300 ho        1 MOL      0.410702
     80 H33         0.4760    6.9030    2.2950 hc        1 MOL      0.031544
     81 H34        -0.0040    7.1420    4.0130 hc        1 MOL      0.031544
     82 H35         1.0490    5.8380    3.5750 hc        1 MOL      0.031544
     83 N9         -1.7940    2.4640    2.4070 n         1 MOL     -0.378717
     84 C26        -2.9590    1.5160    2.4960 c3        1 MOL      0.141424
     85 C27        -4.1770    2.2620    3.0810 c         1 MOL      0.494164
     86 O15        -4.0920    2.6050    4.2430 o         1 MOL     -0.564781
     87 C28        -2.5140    0.2730    3.3850 c3        1 MOL      0.015862
     88 C29        -1.2450   -0.4260    2.9650 c3        1 MOL      0.025682
     89 C30        -3.7950   -0.6440    3.4740 c3        1 MOL     -0.074196
     90 C31        -0.9680   -0.7820    1.5340 c3        1 MOL     -0.256943
     91 H36        -1.0810    2.3800    3.1200 hn        1 MOL      0.252632
     92 H37        -3.1600    1.0300    1.5420 h1        1 MOL      0.019681
     93 H38        -2.3360    0.6850    4.3760 hc        1 MOL     -0.039690
     94 H39        -1.3360   -1.4160    3.4210 hc        1 MOL     -0.005280
     95 H40        -0.3890    0.0990    3.3860 hc        1 MOL     -0.005280
     96 H41        -4.2030   -0.9880    2.5220 hc        1 MOL      0.032633
     97 H42        -3.5590   -1.5790    3.9770 hc        1 MOL      0.032633
     98 H43        -4.5560   -0.1740    4.0930 hc        1 MOL      0.032633
     99 H44        -0.6280    0.1280    1.0380 hc        1 MOL      0.084515
    100 H45        -0.1280   -1.4620    1.6260 hc        1 MOL      0.084515
    101 H46        -1.8400   -1.2920    1.1320 hc        1 MOL      0.084515
    102 N10        -5.1590    2.7030    2.2720 n         1 MOL     -0.518714
    103 C32        -5.4930    2.2360    0.9380 c3        1 MOL      0.214116
    104 C33        -6.6830    1.2140    0.8540 c         1 MOL      0.291378
    105 O16        -7.4110    0.9790    1.8590 o         1 MOL     -0.492881
    106 C34        -6.0850    3.5560    0.2370 c3        1 MOL     -0.087565
    107 C35        -7.0830    4.4370    0.9550 c         1 MOL      0.621409
    108 O17        -8.1300    3.8850    1.3550 o         1 MOL     -0.701119
    109 O18        -6.7100    5.5900    1.3290 o         1 MOL     -0.701119
    110 H47        -5.9270    3.2590    2.6120 hn        1 MOL      0.399606
    111 H48        -4.6510    1.8680    0.3580 h1        1 MOL      0.051132
    112 H49        -6.5140    3.2650   -0.7290 hc        1 MOL     -0.018699
    113 H50        -5.1650    4.0720   -0.0360 hc        1 MOL     -0.018699
    114 N11        -7.0960    0.6970   -0.3030 n         1 MOL     -0.483532
    115 C36        -8.2440   -0.1520   -0.5250 c3        1 MOL      0.544249
    116 C37        -8.1910   -0.8900   -1.8940 c         1 MOL      0.196459
    117 O19        -7.8890   -0.2140   -2.8690 o         1 MOL     -0.479213
    118 C38        -9.4940    0.7270   -0.6150 c3        1 MOL     -0.338283
    119 C39       -10.8240   -0.0650   -0.7070 ca        1 MOL      0.095320
    120 C40       -11.3970   -0.3460   -1.9510 ca        1 MOL     -0.147802
    121 C41       -11.4150   -0.6610    0.4200 ca        1 MOL     -0.147802
    122 C42       -12.4830   -1.1890   -2.0950 ca        1 MOL     -0.081760
    123 C43       -12.4770   -1.5890    0.2830 ca        1 MOL     -0.081760
    124 C44       -13.0110   -1.8290   -0.9870 ca        1 MOL     -0.184987
    125 H51        -6.5830    0.9700   -1.1250 hn        1 MOL      0.284287
    126 H52        -8.3930   -0.9190    0.2240 h1        1 MOL     -0.032541
    127 H53        -9.3690    1.4300   -1.4470 hc        1 MOL      0.138938
    128 H54        -9.5760    1.2750    0.3210 hc        1 MOL      0.138938
    129 H55       -10.9820    0.0070   -2.8790 ha        1 MOL      0.116236
    130 H56       -10.9660   -0.4770    1.3750 ha        1 MOL      0.116236
    131 H57       -12.9080   -1.2980   -3.0790 ha        1 MOL      0.089908
    132 H58       -12.8780   -2.0830    1.1530 ha        1 MOL      0.089908
    133 H59       -13.8270   -2.5350   -1.0900 ha        1 MOL      0.096346
    134 N12        -8.7220   -2.1350   -2.0550 n         1 MOL      0.022942
    135 C45        -8.9750   -3.1450   -1.0700 c3        1 MOL      0.080067
    136 C46        -7.7510   -3.3830   -0.2150 c         1 MOL      0.467264
    137 O20        -7.7200   -3.1080    0.9740 o         1 MOL     -0.522472
    138 C47        -9.4350   -4.4160   -1.8730 c3        1 MOL     -0.150526
    139 C48        -8.8850   -4.1900   -3.2050 c3        1 MOL      0.070320
    140 C49        -9.0660   -2.6540   -3.4140 c3        1 MOL     -0.188968
    141 H60        -9.7760   -2.7210   -0.4660 h1        1 MOL      0.002187
    142 H61        -9.1310   -5.3590   -1.4210 hc        1 MOL      0.047872
    143 H62       -10.5170   -4.4250   -2.0550 hc        1 MOL      0.047872
    144 H63        -7.8560   -4.5010   -3.3630 hc        1 MOL      0.000510
    145 H64        -9.5380   -4.6510   -3.9380 hc        1 MOL      0.000510
    146 H65        -8.4020   -2.3880   -4.2300 h1        1 MOL      0.088227
    147 H66       -10.0990   -2.5100   -3.7120 h1        1 MOL      0.088227
    148 N13        -6.6120   -3.8990   -0.8000 n         1 MOL     -0.513677
    149 C50        -5.3730   -4.2180   -0.0190 c3        1 MOL      0.249382
    150 C51        -5.3840   -5.7520    0.2660 c         1 MOL      0.336751
    151 O21        -5.0670   -6.5670   -0.5610 o         1 MOL     -0.554848
    152 C52        -4.0500   -3.8060   -0.7950 c3        1 MOL     -0.083484
    153 C53        -3.9100   -2.3010   -0.9190 c3        1 MOL     -0.063181
    154 C54        -2.8070   -1.8570   -1.8840 c         1 MOL      0.653982
    155 O22        -3.1950   -1.2730   -2.9230 o         1 MOL     -0.693749
    156 O23        -1.6070   -2.1940   -1.6730 o         1 MOL     -0.693749
    157 H67        -6.6260   -3.9840   -1.7960 hn        1 MOL      0.351027
    158 H68        -5.3900   -3.8680    1.0140 h1        1 MOL      0.084615
    159 H69        -4.0200   -4.3060   -1.7640 hc        1 MOL      0.037411
    160 H70        -3.2130   -4.0400   -0.1220 hc        1 MOL      0.037411
    161 H71        -3.6690   -2.0410    0.1050 hc        1 MOL     -0.026657
    162 H72        -4.8830   -1.8900   -1.1840 hc        1 MOL     -0.026657
    163 N14        -5.6760   -6.2200    1.4930 n         1 MOL     -0.280681
    164 C55        -6.0060   -5.6020    2.7900 c3        1 MOL     -0.121307
    165 H73        -5.1520   -5.6880    3.4610 h1        1 MOL      0.071138
    166 H74        -6.2450   -4.5480    2.6400 h1        1 MOL      0.071138
    167 H75        -6.8640   -6.1100    3.2270 h1        1 MOL      0.071138
    168 H76        -5.4960   -7.2100    1.4400 hn        1 MOL      0.239324
    169 Ca1         7.0620    0.8540    0.1560 Ca        1 MOL      1.775207
    170 O24         8.4770    2.5750    1.5460 oh        1 MOL     -0.797202
    171 H77         8.3840    3.3520    2.0980 ho        1 MOL      0.393686
    172 H78         9.3420    2.2400    1.7550 ho        1 MOL      0.393686
    173 O25         9.1760    1.6580   -1.2500 oh        1 MOL     -0.797202
    174 H79         9.5620    1.0910   -1.9110 ho        1 MOL      0.393686
    175 H80         9.8940    2.2170   -0.9500 ho        1 MOL      0.393686
    176 O26         5.2920    2.1830    1.8770 oh        1 MOL     -0.797202
    177 H81         4.3860    1.9560    2.1020 ho        1 MOL      0.393686
    178 H82         5.3850    3.1000    2.1300 ho        1 MOL      0.393686
    179 O27         7.0810    3.6420   -0.7680 oh        1 MOL     -0.797202
    180 H83         6.5120    4.4060   -0.8350 ho        1 MOL      0.393686
    181 H84         7.8650    3.8860   -1.2540 ho        1 MOL      0.393686
@<TRIPOS>BOND
     1    1    2 1   
     2    1    4 1   
     3    1    5 1   
     4    1    6 1   
     5    2    3 2   
     6    2    7 1   
     7    7    8 1   
     8    7   15 1   
     9    8    9 1   
    10    8   11 1   
    11    8   16 1   
    12    9   10 2   
    13    9   19 1   
    14   11   12 1   
    15   11   17 1   
    16   11   18 1   
    17   12   13 1   
    18   12   14 1   
    19   19   20 1   
    20   19   24 1   
    21   20   21 1   
    22   20   23 1   
    23   20   25 1   
    24   21   22 2   
    25   21   29 1   
    26   23   26 1   
    27   23   27 1   
    28   23   28 1   
    29   29   30 1   
    30   29   37 1   
    31   30   31 1   
    32   30   33 1   
    33   30   38 1   
    34   31   32 2   
    35   31   41 1   
    36   33   34 1   
    37   33   39 1   
    38   33   40 1   
    39   34   35 1   
    40   34   36 1   
    41   41   42 1   
    42   41   45 1   
    43   42   43 1   
    44   42   46 1   
    45   42   47 1   
    46   43   44 2   
    47   43   48 1   
    48   48   49 1   
    49   48   56 1   
    50   49   50 1   
    51   49   52 1   
    52   49   57 1   
    53   50   51 2   
    54   50   62 1   
    55   52   53 1   
    56   52   58 1   
    57   52   59 1   
    58   53   54 1   
    59   53   55 2   
    60   54   60 1   
    61   54   61 1   
    62   62   63 1   
    63   62   66 1   
    64   63   64 1   
    65   63   67 1   
    66   63   68 1   
    67   64   65 2   
    68   64   69 1   
    69   69   70 1   
    70   69   76 1   
    71   70   71 1   
    72   70   73 1   
    73   70   77 1   
    74   71   72 2   
    75   71   83 1   
    76   73   74 1   
    77   73   75 1   
    78   73   78 1   
    79   74   80 1   
    80   74   81 1   
    81   74   82 1   
    82   75   79 1   
    83   83   84 1   
    84   83   91 1   
    85   84   85 1   
    86   84   87 1   
    87   84   92 1   
    88   85   86 2   
    89   85  102 1   
    90   87   88 1   
    91   87   89 1   
    92   87   93 1   
    93   88   90 1   
    94   88   94 1   
    95   88   95 1   
    96   89   96 1   
    97   89   97 1   
    98   89   98 1   
    99   90   99 1   
   100   90  100 1   
   101   90  101 1   
   102  102  103 1   
   103  102  110 1   
   104  103  104 1   
   105  103  106 1   
   106  103  111 1   
   107  104  105 2   
   108  104  114 1   
   109  106  107 1   
   110  106  112 1   
   111  106  113 1   
   112  107  108 1   
   113  107  109 1   
   114  114  115 1   
   115  114  125 1   
   116  115  116 1   
   117  115  118 1   
   118  115  126 1   
   119  116  117 2   
   120  116  134 1   
   121  118  119 1   
   122  118  127 1   
   123  118  128 1   
   124  119  120 ar  
   125  119  121 ar  
   126  120  122 ar  
   127  120  129 1   
   128  121  123 ar  
   129  121  130 1   
   130  122  124 ar  
   131  122  131 1   
   132  123  124 ar  
   133  123  132 1   
   134  124  133 1   
   135  134  135 1   
   136  134  140 1   
   137  135  136 1   
   138  135  138 1   
   139  135  141 1   
   140  136  137 2   
   141  136  148 1   
   142  138  139 1   
   143  138  142 1   
   144  138  143 1   
   145  139  140 1   
   146  139  144 1   
   147  139  145 1   
   148  140  146 1   
   149  140  147 1   
   150  148  149 1   
   151  148  157 1   
   152  149  150 1   
   153  149  152 1   
   154  149  158 1   
   155  150  151 2   
   156  150  163 1   
   157  152  153 1   
   158  152  159 1   
   159  152  160 1   
   160  153  154 1   
   161  153  161 1   
   162  153  162 1   
   163  154  155 1   
   164  154  156 1   
   165  163  164 1   
   166  163  168 1   
   167  164  165 1   
   168  164  166 1   
   169  164  167 1   
   170  170  171 1   
   171  170  172 1   
   172  173  174 1   
   173  173  175 1   
   174  176  177 1   
   175  176  178 1   
   176  179  180 1   
   177  179  181 1   
@<TRIPOS>SUBSTRUCTURE
     1 MOL         1 TEMP              0 ****  ****    0 ROOT
