@<TRIPOS>MOLECULE
MOL
  186   183     1     0     0
SMALL
resp


@<TRIPOS>ATOM
      1 C1         11.6030    4.7770   -4.0030 c3        1 MOL     -0.670520
      2 C2         11.7700    3.7800   -2.9220 c         1 MOL      0.693288
      3 O1         12.1380    2.6380   -3.0860 o         1 MOL     -0.587483
      4 H1         11.2420    5.7140   -3.5790 hc        1 MOL      0.175091
      5 H2         12.5620    4.9470   -4.4930 hc        1 MOL      0.175091
      6 H3         10.8830    4.4070   -4.7320 hc        1 MOL      0.175091
      7 N1         11.4340    4.1190   -1.7000 n         1 MOL     -0.181146
      8 C3         11.5130    3.2460   -0.5210 c3        1 MOL     -0.414359
      9 C4         10.3360    2.2660   -0.5800 c         1 MOL      0.209949
     10 O2          9.3180    2.4690   -1.2240 o         1 MOL     -0.568800
     11 C5         11.2830    4.0890    0.7160 c3        1 MOL      0.312453
     12 C6         10.1310    5.1260    0.7300 c         1 MOL      0.629212
     13 O3          9.3420    5.1320   -0.2190 o         1 MOL     -0.706599
     14 O4         10.0470    5.9570    1.6590 o         1 MOL     -0.706599
     15 H4         10.9490    4.9950   -1.5340 hn        1 MOL      0.136326
     16 H5         12.4500    2.6910   -0.4810 h1        1 MOL      0.151301
     17 H6         12.2490    4.5760    0.8550 hc        1 MOL     -0.010136
     18 H7         11.1050    3.4200    1.5690 hc        1 MOL     -0.010136
     19 N2         10.6470    1.0790   -0.1290 n         1 MOL     -0.009985
     20 C7         10.0040   -0.2670   -0.4810 c3        1 MOL      0.299769
     21 C8          8.7800   -0.4930    0.3970 c         1 MOL      0.058821
     22 O5          8.5820   -1.5220    1.0090 o         1 MOL     -0.411860
     23 C9         11.0560   -1.4490   -0.4460 c3        1 MOL     -0.462940
     24 C10        10.6810   -2.7550   -1.2310 c3        1 MOL      0.161612
     25 C11        11.8660   -3.6870   -1.4710 c3        1 MOL     -0.218612
     26 C12        11.2170   -4.9050   -2.1730 c3        1 MOL      0.197890
     27 N3         12.1120   -6.0290   -2.4280 n4        1 MOL     -0.220349
     28 H8         11.4370    0.9820    0.4920 hn        1 MOL      0.182410
     29 H9          9.7170   -0.2800   -1.5330 h1        1 MOL      0.037864
     30 H10        11.1570   -1.7240    0.5960 hc        1 MOL      0.143414
     31 H11        11.9560   -0.9860   -0.8620 hc        1 MOL      0.143414
     32 H12        10.2890   -2.5830   -2.2300 hc        1 MOL      0.033659
     33 H13         9.9150   -3.3280   -0.6990 hc        1 MOL      0.033659
     34 H14        12.2710   -4.0210   -0.5160 hc        1 MOL      0.071437
     35 H15        12.6480   -3.2900   -2.1200 hc        1 MOL      0.071437
     36 H16        10.8520   -4.5190   -3.1260 hx        1 MOL      0.019623
     37 H17        10.3430   -5.2510   -1.6170 hx        1 MOL      0.019623
     38 H18        12.6340   -6.3540   -1.6270 hn        1 MOL      0.241736
     39 H19        11.5430   -6.7160   -2.9040 hn        1 MOL      0.241736
     40 H20        12.8150   -5.7360   -3.0810 hn        1 MOL      0.241736
     41 N4          7.8570    0.4600    0.3990 n         1 MOL      0.101185
     42 C13         6.6360    0.5200    1.2430 c3        1 MOL     -0.073331
     43 C14         5.4640    1.1760    0.3940 c         1 MOL      0.151129
     44 O6          5.6730    1.9420   -0.5490 o         1 MOL     -0.563873
     45 C15         6.9340    1.1920    2.6300 c3        1 MOL     -0.392387
     46 C16         7.6100    2.5910    2.5420 c         1 MOL      0.641074
     47 O7          7.3570    3.3610    1.5950 o         1 MOL     -0.627143
     48 O8          8.2990    2.9160    3.5220 o         1 MOL     -0.627143
     49 H21         7.9800    1.2870   -0.1740 hn        1 MOL      0.071610
     50 H22         6.4360   -0.5310    1.4120 h1        1 MOL      0.184249
     51 H23         7.6400    0.5560    3.1470 hc        1 MOL      0.172340
     52 H24         6.0490    1.3540    3.2600 hc        1 MOL      0.172340
     53 N5          4.1900    0.8380    0.6440 n         1 MOL     -0.011786
     54 C17         3.6100    0.1170    1.7990 c3        1 MOL     -0.437777
     55 C18         3.7440   -1.3850    1.7100 c         1 MOL      0.842287
     56 O9          3.9700   -1.8960    0.5680 o         1 MOL     -0.592825
     57 H25         3.4910    1.3310    0.1040 hn        1 MOL      0.204155
     58 H26         2.5380    0.3230    1.8420 h1        1 MOL      0.167860
     59 H27         4.2410    0.4360    2.6290 h1        1 MOL      0.167860
     60 N6          3.7120   -2.0730    2.8990 n         1 MOL     -0.843584
     61 C19         3.7270   -3.5600    2.9790 c3        1 MOL      0.481567
     62 C20         2.3150   -4.0590    3.0410 c         1 MOL      0.327141
     63 O10         1.4100   -3.4110    3.6470 o         1 MOL     -0.490095
     64 C21         4.5740   -4.1720    4.0750 c3        1 MOL     -0.283787
     65 C22         5.9360   -3.5020    4.1350 c         1 MOL      0.774298
     66 O11         6.0980   -2.4530    4.8000 o         1 MOL     -0.672907
     67 O12         6.9110   -4.0160    3.5480 o         1 MOL     -0.672907
     68 H28         3.5180   -1.6040    3.7720 hn        1 MOL      0.398685
     69 H29         4.1560   -3.9210    2.0500 h1        1 MOL     -0.030412
     70 H30         4.6230   -5.2280    3.8010 hc        1 MOL      0.039404
     71 H31         4.0810   -3.9580    5.0200 hc        1 MOL      0.039404
     72 N7          2.0040   -5.2860    2.6260 n         1 MOL     -0.305027
     73 C23         0.6670   -5.8540    2.6050 c3        1 MOL     -0.220929
     74 C24        -0.2170   -5.3480    1.4210 c         1 MOL      0.545063
     75 O13        -1.3820   -5.7270    1.3260 o         1 MOL     -0.546975
     76 H32         2.7580   -5.8300    2.2280 hn        1 MOL      0.262930
     77 H33         0.1590   -5.6540    3.5450 h1        1 MOL      0.141803
     78 H34         0.6120   -6.9330    2.4820 h1        1 MOL      0.141803
     79 N8          0.2720   -4.4570    0.5090 n         1 MOL     -0.284858
     80 C25        -0.5410   -3.8680   -0.5850 c3        1 MOL     -0.157976
     81 C26        -1.1910   -2.4710   -0.3010 c         1 MOL      0.809118
     82 O14        -0.7490   -1.8020    0.6160 o         1 MOL     -0.546407
     83 C27         0.3130   -3.8940   -1.8820 c3        1 MOL      0.267759
     84 C28         1.6980   -3.3160   -1.8050 c3        1 MOL     -0.216356
     85 O15         0.4330   -5.2630   -2.4110 oh        1 MOL     -0.646999
     86 H35         1.2610   -4.2520    0.5430 hn        1 MOL      0.180265
     87 H36        -1.4020   -4.5160   -0.7470 h1        1 MOL      0.074265
     88 H37        -0.1700   -3.4140   -2.7320 h1        1 MOL      0.061044
     89 H38         0.2800   -5.9590   -1.7830 ho        1 MOL      0.391935
     90 H39         2.3110   -4.0220   -1.2390 hc        1 MOL      0.071674
     91 H40         2.1450   -3.2890   -2.7990 hc        1 MOL      0.071674
     92 H41         1.6730   -2.3140   -1.3840 hc        1 MOL      0.071674
     93 N9         -2.1030   -1.9330   -1.1160 n         1 MOL     -0.553548
     94 C29        -2.7150   -0.6420   -1.0090 c3        1 MOL     -0.290618
     95 C30        -4.2690   -0.7380   -0.9170 c         1 MOL      0.733850
     96 O16        -5.0490    0.2260   -0.6150 o         1 MOL     -0.623485
     97 C31        -2.3310    0.3100   -2.1700 c3        1 MOL      0.005622
     98 C32        -2.7370   -0.2180   -3.5340 c3        1 MOL      0.116105
     99 C33        -0.8720    0.6840   -1.9250 c3        1 MOL     -0.013286
    100 C34        -2.6840    0.8070   -4.7040 c3        1 MOL     -0.190743
    101 H42        -2.3670   -2.4910   -1.9080 hn        1 MOL      0.244367
    102 H43        -2.3630   -0.2030   -0.0660 h1        1 MOL      0.192189
    103 H44        -2.9190    1.2160   -2.0240 hc        1 MOL      0.062988
    104 H45        -3.7940   -0.4840   -3.5020 hc        1 MOL     -0.000224
    105 H46        -2.1540   -1.0520   -3.9220 hc        1 MOL     -0.000224
    106 H47        -0.4390    1.2950   -2.7080 hc        1 MOL      0.012016
    107 H48        -0.7940    1.2220   -0.9700 hc        1 MOL      0.012016
    108 H49        -0.2040   -0.1730   -1.8680 hc        1 MOL      0.012016
    109 H50        -3.4900    0.6520   -5.4150 hc        1 MOL      0.041792
    110 H51        -2.7570    1.8280   -4.3470 hc        1 MOL      0.041792
    111 H52        -1.6990    0.7180   -5.1700 hc        1 MOL      0.041792
    112 N10        -4.7900   -1.9440   -1.1300 n         1 MOL     -0.336574
    113 C35        -6.1640   -2.3130   -0.7450 c3        1 MOL     -0.096039
    114 C36        -7.1130   -2.1790   -2.0060 c         1 MOL      0.658280
    115 O17        -6.7170   -2.5620   -3.1080 o         1 MOL     -0.553110
    116 C37        -6.3930   -3.6630   -0.0430 c3        1 MOL      0.242797
    117 C38        -5.7150   -4.7840   -0.8100 c3        1 MOL     -0.151914
    118 O18        -5.7880   -3.5330    1.2480 oh        1 MOL     -0.563685
    119 H53        -4.2060   -2.6620   -1.5470 hn        1 MOL      0.213223
    120 H54        -6.5090   -1.5450   -0.0560 h1        1 MOL      0.128648
    121 H55        -7.4530   -3.9070   -0.0890 h1        1 MOL     -0.013517
    122 H56        -6.0940   -4.2980    1.7260 ho        1 MOL      0.389369
    123 H57        -4.6840   -4.7670   -0.4460 hc        1 MOL      0.049365
    124 H58        -6.0780   -5.7410   -0.4450 hc        1 MOL      0.049365
    125 H59        -5.7530   -4.8320   -1.8980 hc        1 MOL      0.049365
    126 N11        -8.3230   -1.7590   -1.7560 n         1 MOL     -0.570409
    127 C39        -9.4400   -1.6750   -2.7220 c3        1 MOL      0.075163
    128 C40       -10.2410   -0.4740   -2.4730 c         1 MOL      0.523171
    129 O19       -11.0220    0.0270   -3.3220 o         1 MOL     -0.555420
    130 C41       -10.3790   -2.8720   -2.3950 c3        1 MOL      0.198307
    131 C42       -11.6930   -2.8080   -3.2820 c3        1 MOL     -0.535797
    132 O20       -10.8690   -2.8610   -1.0870 oh        1 MOL     -0.574601
    133 H60        -8.6020   -1.6490   -0.7940 hn        1 MOL      0.261124
    134 H61        -9.1600   -1.9570   -3.7430 h1        1 MOL      0.119034
    135 H62        -9.7640   -3.7390   -2.6300 h1        1 MOL      0.066109
    136 H63       -11.2390   -3.7010   -0.8060 ho        1 MOL      0.400611
    137 H64       -11.4830   -2.6910   -4.3410 hc        1 MOL      0.149062
    138 H65       -12.3010   -3.7110   -3.2810 hc        1 MOL      0.149062
    139 H66       -12.4170   -2.0100   -3.0950 hc        1 MOL      0.149062
    140 N12       -10.1830    0.0860   -1.2290 n         1 MOL     -0.316114
    141 C43       -10.8490    1.3590   -0.8640 c3        1 MOL     -0.052723
    142 C44       -10.0990    2.0570    0.2580 c         1 MOL      0.306606
    143 O21        -9.6840    1.4170    1.2810 o         1 MOL     -0.475385
    144 C45       -12.3200    1.0880   -0.3490 c3        1 MOL     -0.122855
    145 C46       -12.3840    0.2080    0.8940 c3        1 MOL      0.007402
    146 C47       -13.7680   -0.1810    1.3530 c3        1 MOL     -0.055275
    147 C48       -13.7350   -1.1160    2.5600 c3        1 MOL     -0.038004
    148 N13       -15.0680   -1.6360    2.8180 n4        1 MOL     -0.105932
    149 H67        -9.7520   -0.5060   -0.5290 hn        1 MOL      0.262115
    150 H68       -10.8870    2.0920   -1.6710 h1        1 MOL      0.130549
    151 H69       -13.0200    0.6890   -1.0840 hc        1 MOL      0.065421
    152 H70       -12.7490    2.0390   -0.0410 hc        1 MOL      0.065421
    153 H71       -11.8980    0.7240    1.7110 hc        1 MOL      0.042672
    154 H72       -11.9330   -0.7580    0.6400 hc        1 MOL      0.042672
    155 H73       -14.5100   -0.5250    0.6310 hc        1 MOL      0.045345
    156 H74       -14.1550    0.7800    1.6770 hc        1 MOL      0.045345
    157 H75       -13.3600   -0.5130    3.3860 hx        1 MOL      0.086664
    158 H76       -13.0980   -1.9900    2.4220 hx        1 MOL      0.086664
    159 H77       -15.7630   -0.9210    2.9930 hn        1 MOL      0.193105
    160 H78       -15.4070   -2.2320    2.0800 hn        1 MOL      0.193105
    161 H79       -14.9400   -2.2040    3.6480 hn        1 MOL      0.193105
    162 N14       -10.0180    3.4250    0.1000 n         1 MOL     -0.186717
    163 C49        -9.3630    4.1730    1.0990 c3        1 MOL      0.124000
    164 C50        -7.8690    3.8010    1.3510 c         1 MOL      0.350453
    165 O22        -7.4850    3.7230    2.5240 o         1 MOL     -0.502258
    166 C51        -9.5820    5.6630    0.8000 c3        1 MOL      0.054310
    167 C52        -9.0960    6.5810    1.9250 c3        1 MOL     -0.126769
    168 C53        -9.6520    8.0150    1.8030 c         1 MOL      0.630284
    169 O23       -10.8690    8.3010    1.5740 o         1 MOL     -0.619769
    170 O24        -8.8400    9.0270    2.0160 o         1 MOL     -0.619769
    171 H80       -10.4450    3.8670   -0.6940 hn        1 MOL      0.204042
    172 H81        -9.8900    3.9000    2.0120 h1        1 MOL      0.064199
    173 H82       -10.6690    5.7250    0.7800 hc        1 MOL     -0.028113
    174 H83        -9.1400    5.9580   -0.1430 hc        1 MOL     -0.028113
    175 H84        -8.0150    6.6070    2.0740 hc        1 MOL      0.037941
    176 H85        -9.5370    6.1810    2.8390 hc        1 MOL      0.037941
    177 N15        -6.9500    3.5750    0.3230 n         1 MOL     -0.249501
    178 C54        -7.0780    4.1960   -0.9780 c3        1 MOL     -0.156454
    179 H86        -7.4320    5.2200   -0.8590 h1        1 MOL      0.075143
    180 H87        -6.1080    4.2030   -1.4750 h1        1 MOL      0.075143
    181 H88        -7.7910    3.6340   -1.5810 h1        1 MOL      0.075143
    182 H89        -6.0420    3.1880    0.5470 hn        1 MOL      0.272087
    183 Ca1         6.9140    4.4140   -0.7590 Ca        1 MOL      1.676946
    184 O25         7.2370    2.9840   -3.0620 oh        1 MOL     -0.839127
    185 H90         7.9800    2.4350   -2.8080 ho        1 MOL      0.427179
    186 H91         7.3140    3.0700   -4.0160 ho        1 MOL      0.427179
@<TRIPOS>BOND
     1    1    2 1   
     2    1    4 1   
     3    1    5 1   
     4    1    6 1   
     5    2    3 2   
     6    2    7 1   
     7    7    8 1   
     8    7   15 1   
     9    8    9 1   
    10    8   11 1   
    11    8   16 1   
    12    9   10 2   
    13    9   19 1   
    14   11   12 1   
    15   11   17 1   
    16   11   18 1   
    17   12   13 1   
    18   12   14 1   
    19   19   20 1   
    20   19   28 1   
    21   20   21 1   
    22   20   23 1   
    23   20   29 1   
    24   21   22 2   
    25   21   41 1   
    26   23   24 1   
    27   23   30 1   
    28   23   31 1   
    29   24   25 1   
    30   24   32 1   
    31   24   33 1   
    32   25   26 1   
    33   25   34 1   
    34   25   35 1   
    35   26   27 1   
    36   26   36 1   
    37   26   37 1   
    38   27   38 1   
    39   27   39 1   
    40   27   40 1   
    41   41   42 1   
    42   41   49 1   
    43   42   43 1   
    44   42   45 1   
    45   42   50 1   
    46   43   44 2   
    47   43   53 1   
    48   45   46 1   
    49   45   51 1   
    50   45   52 1   
    51   46   47 1   
    52   46   48 1   
    53   53   54 1   
    54   53   57 1   
    55   54   55 1   
    56   54   58 1   
    57   54   59 1   
    58   55   56 2   
    59   55   60 1   
    60   60   61 1   
    61   60   68 1   
    62   61   62 1   
    63   61   64 1   
    64   61   69 1   
    65   62   63 2   
    66   62   72 1   
    67   64   65 1   
    68   64   70 1   
    69   64   71 1   
    70   65   66 1   
    71   65   67 1   
    72   72   73 1   
    73   72   76 1   
    74   73   74 1   
    75   73   77 1   
    76   73   78 1   
    77   74   75 2   
    78   74   79 1   
    79   79   80 1   
    80   79   86 1   
    81   80   81 1   
    82   80   83 1   
    83   80   87 1   
    84   81   82 2   
    85   81   93 1   
    86   83   84 1   
    87   83   85 1   
    88   83   88 1   
    89   84   90 1   
    90   84   91 1   
    91   84   92 1   
    92   85   89 1   
    93   93   94 1   
    94   93  101 1   
    95   94   95 1   
    96   94   97 1   
    97   94  102 1   
    98   95   96 2   
    99   95  112 1   
   100   97   98 1   
   101   97   99 1   
   102   97  103 1   
   103   98  100 1   
   104   98  104 1   
   105   98  105 1   
   106   99  106 1   
   107   99  107 1   
   108   99  108 1   
   109  100  109 1   
   110  100  110 1   
   111  100  111 1   
   112  112  113 1   
   113  112  119 1   
   114  113  114 1   
   115  113  116 1   
   116  113  120 1   
   117  114  115 2   
   118  114  126 1   
   119  116  117 1   
   120  116  118 1   
   121  116  121 1   
   122  117  123 1   
   123  117  124 1   
   124  117  125 1   
   125  118  122 1   
   126  126  127 1   
   127  126  133 1   
   128  127  128 1   
   129  127  130 1   
   130  127  134 1   
   131  128  129 2   
   132  128  140 1   
   133  130  131 1   
   134  130  132 1   
   135  130  135 1   
   136  131  137 1   
   137  131  138 1   
   138  131  139 1   
   139  132  136 1   
   140  140  141 1   
   141  140  149 1   
   142  141  142 1   
   143  141  144 1   
   144  141  150 1   
   145  142  143 2   
   146  142  162 1   
   147  144  145 1   
   148  144  151 1   
   149  144  152 1   
   150  145  146 1   
   151  145  153 1   
   152  145  154 1   
   153  146  147 1   
   154  146  155 1   
   155  146  156 1   
   156  147  148 1   
   157  147  157 1   
   158  147  158 1   
   159  148  159 1   
   160  148  160 1   
   161  148  161 1   
   162  162  163 1   
   163  162  171 1   
   164  163  164 1   
   165  163  166 1   
   166  163  172 1   
   167  164  165 2   
   168  164  177 1   
   169  166  167 1   
   170  166  173 1   
   171  166  174 1   
   172  167  168 1   
   173  167  175 1   
   174  167  176 1   
   175  168  169 1   
   176  168  170 1   
   177  177  178 1   
   178  177  182 1   
   179  178  179 1   
   180  178  180 1   
   181  178  181 1   
   182  184  185 1   
   183  184  186 1   
@<TRIPOS>SUBSTRUCTURE
     1 MOL         1 TEMP              0 ****  ****    0 ROOT
