@<TRIPOS>MOLECULE
MOL
  192   187     1     0     0
SMALL
resp


@<TRIPOS>ATOM
      1 C1          8.8720    2.2010    1.0950 c3        1 MOL     -0.537265
      2 C2          8.0210    1.2530    0.2900 c         1 MOL      0.917596
      3 O1          6.9120    0.9400    0.7330 o         1 MOL     -0.776096
      4 H1          8.3840    2.4060    2.0470 hc        1 MOL      0.133909
      5 H2          9.8470    1.7490    1.2770 hc        1 MOL      0.133909
      6 H3          9.0010    3.1330    0.5440 hc        1 MOL      0.133909
      7 N1          8.4470    0.7240   -0.8310 n         1 MOL     -0.727645
      8 C3          7.5930   -0.1730   -1.7330 c3        1 MOL      0.286511
      9 C4          7.4120   -1.6310   -1.2940 c         1 MOL      0.266893
     10 O2          7.7490   -2.6210   -1.8960 o         1 MOL     -0.428958
     11 C5          8.1690   -0.2570   -3.1640 c3        1 MOL     -0.290629
     12 C6          9.6890   -0.6140   -3.2870 c         1 MOL      0.704128
     13 O3         10.4610   -0.5460   -2.3070 o         1 MOL     -0.643331
     14 O4         10.0940   -1.0020   -4.3960 o         1 MOL     -0.643331
     15 H4          9.1760    1.2490   -1.2810 hn        1 MOL      0.326904
     16 H5          6.6060    0.2540   -1.8760 h1        1 MOL      0.044101
     17 H6          8.0040    0.7290   -3.5960 hc        1 MOL      0.081368
     18 H7          7.5230   -0.9880   -3.6720 hc        1 MOL      0.081368
     19 N2          6.8240   -1.7340   -0.1190 n         1 MOL      0.027519
     20 C7          6.5440   -2.9840    0.6370 c3        1 MOL     -0.119422
     21 C8          5.0390   -3.3870    0.5220 c         1 MOL      0.530454
     22 O5          4.7500   -4.5690    0.1540 o         1 MOL     -0.540976
     23 C9          7.0110   -2.8740    2.1180 c3        1 MOL      0.125076
     24 C10         8.5350   -2.7780    2.1780 c3        1 MOL     -0.042343
     25 C11         8.9340   -2.8120    3.6370 c3        1 MOL     -0.124024
     26 C12        10.4560   -2.6790    3.7410 c3        1 MOL      0.180437
     27 N3         10.8250   -3.0840    5.0800 n4        1 MOL     -0.187588
     28 H8          6.4750   -0.8780    0.3060 hn        1 MOL      0.118450
     29 H9          7.1420   -3.7320    0.1180 h1        1 MOL      0.075641
     30 H10         6.6990   -3.6940    2.7600 hc        1 MOL     -0.014965
     31 H11         6.5380   -2.0670    2.6750 hc        1 MOL     -0.014965
     32 H12         8.9630   -1.9080    1.6870 hc        1 MOL      0.044768
     33 H13         8.8570   -3.7110    1.7210 hc        1 MOL      0.044768
     34 H14         8.6900   -3.7600    4.1010 hc        1 MOL      0.041534
     35 H15         8.5190   -1.9480    4.1580 hc        1 MOL      0.041534
     36 H16        10.9010   -1.6880    3.5850 hx        1 MOL      0.041507
     37 H17        10.9620   -3.3490    3.0560 hx        1 MOL      0.041507
     38 H18        10.5820   -4.0500    5.2420 hn        1 MOL      0.229838
     39 H19        11.8030   -2.9820    5.2930 hn        1 MOL      0.229838
     40 H20        10.2480   -2.6480    5.7900 hn        1 MOL      0.229838
     41 N4          4.0350   -2.5730    0.7790 n         1 MOL     -0.513107
     42 C13         4.0550   -1.1470    1.2240 c3        1 MOL      0.171752
     43 C14         3.9140   -0.0470    0.1330 c         1 MOL     -0.014010
     44 O6          3.7140   -0.3380   -1.0830 o         1 MOL     -0.368989
     45 C15         2.8280   -0.9500    2.1090 c3        1 MOL     -0.275408
     46 C16         1.4740   -1.3590    1.5360 c         1 MOL      0.671036
     47 O7          0.7970   -0.5300    0.8750 o         1 MOL     -0.632800
     48 O8          1.1400   -2.6030    1.6500 o         1 MOL     -0.632800
     49 H21         3.1150   -2.9030    0.5200 hn        1 MOL      0.383000
     50 H22         4.9380   -0.9760    1.8370 h1        1 MOL      0.124905
     51 H23         2.7160    0.1210    2.3010 hc        1 MOL      0.045674
     52 H24         3.0230   -1.3810    3.1000 hc        1 MOL      0.045674
     53 N5          3.9350    1.2290    0.4750 n         1 MOL     -0.018670
     54 C17         3.9310    2.3260   -0.4480 c3        1 MOL     -0.249694
     55 C18         2.5640    2.6540   -1.0160 c         1 MOL      0.471858
     56 O9          1.5590    2.3180   -0.4630 o         1 MOL     -0.452119
     57 H25         3.9030    1.4150    1.4620 hn        1 MOL      0.248451
     58 H26         4.6440    2.1160   -1.2480 h1        1 MOL      0.130792
     59 H27         4.2020    3.2340    0.0910 h1        1 MOL      0.130792
     60 N6          2.5160    3.2990   -2.2040 n         1 MOL     -0.369573
     61 C19         1.4070    3.9030   -2.8830 c3        1 MOL      0.287729
     62 C20         1.6810    5.4020   -3.2330 c         1 MOL      0.359264
     63 O10         2.8150    5.7700   -3.5130 o         1 MOL     -0.530773
     64 C21         1.0780    3.1240   -4.1810 c3        1 MOL     -0.201971
     65 C22         0.6220    1.7180   -3.9290 c         1 MOL      0.644151
     66 O11         1.2090    0.7050   -4.4070 o         1 MOL     -0.669078
     67 O12        -0.3190    1.6100   -3.1120 o         1 MOL     -0.669078
     68 H28         3.4280    3.6200   -2.5030 hn        1 MOL      0.248673
     69 H29         0.5160    3.9070   -2.2560 h1        1 MOL     -0.005833
     70 H30         1.9700    3.0760   -4.8000 hc        1 MOL      0.051602
     71 H31         0.2270    3.6400   -4.6410 hc        1 MOL      0.051602
     72 N7          0.7560    6.3310   -3.1570 n         1 MOL     -0.325103
     73 C23        -0.7260    6.2750   -3.0090 c3        1 MOL     -0.156905
     74 C24        -1.2490    6.1450   -1.6260 c         1 MOL      0.657876
     75 O13        -0.5740    6.5160   -0.6850 o         1 MOL     -0.538237
     76 H32         1.1440    7.2350   -3.3940 hn        1 MOL      0.290764
     77 H33        -1.0180    5.3820   -3.5640 h1        1 MOL      0.099965
     78 H34        -1.1240    7.1040   -3.5920 h1        1 MOL      0.099965
     79 N8         -2.3560    5.4180   -1.4910 n         1 MOL     -0.627939
     80 C25        -2.8460    4.9530   -0.2380 c3        1 MOL      0.040842
     81 C26        -1.9720    3.8850    0.3450 c         1 MOL      0.747382
     82 O14        -1.5040    3.0300   -0.3480 o         1 MOL     -0.598399
     83 C27        -4.2700    4.5150   -0.6360 c3        1 MOL      0.239526
     84 C28        -5.1380    4.0610    0.5410 c3        1 MOL     -0.372298
     85 O15        -4.2460    3.3910   -1.5430 oh        1 MOL     -0.593742
     86 H35        -2.6420    4.9130   -2.3140 hn        1 MOL      0.308377
     87 H36        -2.8850    5.8590    0.3740 h1        1 MOL      0.095205
     88 H37        -4.6960    5.3880   -1.1070 h1        1 MOL      0.062534
     89 H38        -5.0800    3.3890   -2.0270 ho        1 MOL      0.420551
     90 H39        -6.1430    3.7090    0.2770 hc        1 MOL      0.093394
     91 H40        -4.6420    3.2880    1.1240 hc        1 MOL      0.093394
     92 H41        -5.2990    4.8880    1.2330 hc        1 MOL      0.093394
     93 N9         -1.9390    3.8580    1.7080 n         1 MOL     -0.682077
     94 C29        -1.2570    2.8610    2.5590 c3        1 MOL      0.476843
     95 C30        -1.8060    1.4570    2.4270 c         1 MOL      0.317386
     96 O16        -2.0360    0.9840    1.3190 o         1 MOL     -0.527399
     97 C31         0.2180    2.9840    2.5360 c3        1 MOL      0.403244
     98 C32         0.7290    4.4500    2.7220 c3        1 MOL     -0.166041
     99 C33         0.8440    2.0810    3.5880 c3        1 MOL     -0.442833
    100 C34         0.3620    5.1230    4.0830 c3        1 MOL     -0.103968
    101 H42        -2.1950    4.7170    2.1780 hn        1 MOL      0.288545
    102 H43        -1.6120    3.2270    3.5220 h1        1 MOL     -0.074047
    103 H44         0.5240    2.5860    1.5770 hc        1 MOL     -0.180065
    104 H45         0.3370    5.0320    1.8910 hc        1 MOL      0.054833
    105 H46         1.8100    4.3230    2.6240 hc        1 MOL      0.054833
    106 H47         0.5870    1.0260    3.5000 hc        1 MOL      0.100772
    107 H48         1.9310    2.0240    3.5430 hc        1 MOL      0.100772
    108 H49         0.5570    2.4110    4.5780 hc        1 MOL      0.100772
    109 H50        -0.7240    5.1890    4.1860 hc        1 MOL      0.027096
    110 H51         0.7390    4.5360    4.9240 hc        1 MOL      0.027096
    111 H52         0.7390    6.1380    4.1510 hc        1 MOL      0.027096
    112 N10        -2.0630    0.7730    3.5670 n         1 MOL     -0.432006
    113 C35        -2.4660   -0.5770    3.8140 c3        1 MOL     -0.464105
    114 C36        -3.8910   -0.8460    3.2600 c         1 MOL      0.744243
    115 O17        -4.2650   -1.9720    3.2160 o         1 MOL     -0.563632
    116 C37        -2.3870   -0.8490    5.3440 c3        1 MOL      0.501505
    117 C38        -3.4850   -0.0990    6.1550 c3        1 MOL     -0.189496
    118 O18        -1.1550   -0.4010    5.8730 oh        1 MOL     -0.594733
    119 H53        -1.7190    1.2970    4.3570 hn        1 MOL      0.259471
    120 H54        -1.7450   -1.1710    3.2750 h1        1 MOL      0.223817
    121 H55        -2.5750   -1.9080    5.4620 h1        1 MOL     -0.002191
    122 H56        -0.4920   -0.7750    5.2770 ho        1 MOL      0.378145
    123 H57        -3.4240   -0.4870    7.1680 hc        1 MOL      0.049611
    124 H58        -3.2640    0.9730    6.1650 hc        1 MOL      0.049611
    125 H59        -4.4780   -0.3580    5.7840 hc        1 MOL      0.049611
    126 N11        -4.7170    0.0910    2.8540 n         1 MOL     -0.326010
    127 C39        -6.0080   -0.1010    2.2640 c3        1 MOL     -0.253799
    128 C40        -5.9090   -0.6650    0.8640 c         1 MOL      0.627020
    129 O19        -5.4280   -0.0510   -0.0690 o         1 MOL     -0.486397
    130 C41        -6.8210    1.2340    2.3060 c3        1 MOL      0.508009
    131 C42        -8.3440    0.8680    2.1560 c3        1 MOL     -0.348429
    132 O20        -6.6580    1.9170    3.5330 oh        1 MOL     -0.545748
    133 H60        -4.2800    1.0060    2.8080 hn        1 MOL      0.247302
    134 H61        -6.5050   -0.8060    2.9310 h1        1 MOL      0.109983
    135 H62        -6.5110    1.7740    1.4070 h1        1 MOL     -0.069760
    136 H63        -5.7000    1.9440    3.6540 ho        1 MOL      0.312040
    137 H64        -8.7990    1.8570    2.2440 hc        1 MOL      0.083309
    138 H65        -8.6220    0.3060    1.2650 hc        1 MOL      0.083309
    139 H66        -8.6800    0.2210    2.9720 hc        1 MOL      0.083309
    140 N12        -6.4530   -1.8970    0.5640 n         1 MOL     -0.332184
    141 C43        -6.5580   -2.6130   -0.7280 c3        1 MOL     -0.071316
    142 C44        -5.2400   -2.6950   -1.4810 c         1 MOL      0.644911
    143 O21        -4.9820   -1.9030   -2.3820 o         1 MOL     -0.512237
    144 C45        -7.7980   -2.2290   -1.5750 c3        1 MOL     -0.329763
    145 C46        -9.1460   -2.4190   -0.8070 c3        1 MOL      0.060252
    146 C47       -10.4360   -2.1570   -1.6340 c3        1 MOL      0.086716
    147 C48       -11.6280   -1.9920   -0.7050 c3        1 MOL      0.026703
    148 N13       -12.9190   -1.7290   -1.3730 n4        1 MOL     -0.179904
    149 H67        -6.8340   -2.3660    1.3700 hn        1 MOL      0.214858
    150 H68        -6.8380   -3.6440   -0.5230 h1        1 MOL      0.084945
    151 H69        -7.8770   -2.8560   -2.4610 hc        1 MOL      0.125549
    152 H70        -7.7650   -1.1880   -1.9040 hc        1 MOL      0.125549
    153 H71        -9.1320   -1.7100    0.0140 hc        1 MOL      0.011437
    154 H72        -9.1570   -3.4600   -0.4750 hc        1 MOL      0.011437
    155 H73       -10.5460   -3.0250   -2.2790 hc        1 MOL      0.004306
    156 H74       -10.2650   -1.2880   -2.2640 hc        1 MOL      0.004306
    157 H75       -11.3500   -1.1340   -0.0990 hx        1 MOL      0.041423
    158 H76       -11.6680   -2.9290   -0.1410 hx        1 MOL      0.041423
    159 H77       -12.7370   -1.0440   -2.0820 hn        1 MOL      0.197999
    160 H78       -13.2080   -2.6040   -1.7660 hn        1 MOL      0.197999
    161 H79       -13.6510   -1.3260   -0.7980 hn        1 MOL      0.197999
    162 N14        -4.4310   -3.7120   -1.0800 n         1 MOL     -0.523406
    163 C49        -3.0080   -3.6940   -1.5150 c3        1 MOL      0.072473
    164 C50        -2.1690   -3.0030   -0.5170 c         1 MOL      0.320169
    165 O22        -1.9800   -1.8010   -0.6210 o         1 MOL     -0.494303
    166 C51        -2.6380   -5.1340   -1.9490 c3        1 MOL      0.044997
    167 C52        -3.2820   -5.6190   -3.2720 c3        1 MOL     -0.221287
    168 C53        -2.8560   -6.9950   -3.7650 c         1 MOL      0.659674
    169 O23        -1.7640   -7.0040   -4.4090 o         1 MOL     -0.616524
    170 O24        -3.3710   -7.9850   -3.2540 o         1 MOL     -0.616524
    171 H80        -4.7260   -4.3310   -0.3360 hn        1 MOL      0.289147
    172 H81        -2.9740   -3.0320   -2.3760 h1        1 MOL      0.166786
    173 H82        -2.8820   -5.7800   -1.1050 hc        1 MOL      0.043667
    174 H83        -1.5510   -5.1990   -1.9870 hc        1 MOL      0.043667
    175 H84        -2.9910   -4.9650   -4.0990 hc        1 MOL      0.026171
    176 H85        -4.3660   -5.4780   -3.2680 hc        1 MOL      0.026171
    177 N15        -1.5510   -3.6170    0.5360 n         1 MOL     -0.180411
    178 C54        -1.8630   -4.8480    1.2480 c3        1 MOL     -0.105460
    179 H86        -1.5110   -5.7010    0.6690 h1        1 MOL      0.059840
    180 H87        -1.3700   -4.8410    2.2200 h1        1 MOL      0.059840
    181 H88        -2.9410   -4.9250    1.3880 h1        1 MOL      0.059840
    182 H89        -0.8720   -2.9800    0.9340 hn        1 MOL      0.188648
    183 Ca1        -0.7160    0.5260   -0.8400 Ca        1 MOL      1.750891
    184 O25         1.3140   -1.1440   -1.7460 oh        1 MOL     -0.886710
    185 H90         2.1940   -1.1570   -1.3840 ho        1 MOL      0.416907
    186 H91         1.4340   -1.2840   -2.6830 ho        1 MOL      0.416907
    187 O26        -1.1370   -1.0490   -3.6020 oh        1 MOL     -0.886710
    188 H92        -0.6250   -0.2670   -3.8140 ho        1 MOL      0.416907
    189 H93        -0.7330   -1.7440   -4.1260 ho        1 MOL      0.416907
    190 O27        -3.2630    0.8700   -1.4540 oh        1 MOL     -0.886710
    191 H94        -4.0460    0.3690   -1.2320 ho        1 MOL      0.416907
    192 H95        -3.5440    1.7840   -1.3740 ho        1 MOL      0.416907
@<TRIPOS>BOND
     1    1    2 1   
     2    1    4 1   
     3    1    5 1   
     4    1    6 1   
     5    2    3 2   
     6    2    7 1   
     7    7    8 1   
     8    7   15 1   
     9    8    9 1   
    10    8   11 1   
    11    8   16 1   
    12    9   10 2   
    13    9   19 1   
    14   11   12 1   
    15   11   17 1   
    16   11   18 1   
    17   12   13 1   
    18   12   14 1   
    19   19   20 1   
    20   19   28 1   
    21   20   21 1   
    22   20   23 1   
    23   20   29 1   
    24   21   22 2   
    25   21   41 1   
    26   23   24 1   
    27   23   30 1   
    28   23   31 1   
    29   24   25 1   
    30   24   32 1   
    31   24   33 1   
    32   25   26 1   
    33   25   34 1   
    34   25   35 1   
    35   26   27 1   
    36   26   36 1   
    37   26   37 1   
    38   27   38 1   
    39   27   39 1   
    40   27   40 1   
    41   41   42 1   
    42   41   49 1   
    43   42   43 1   
    44   42   45 1   
    45   42   50 1   
    46   43   44 2   
    47   43   53 1   
    48   45   46 1   
    49   45   51 1   
    50   45   52 1   
    51   46   47 1   
    52   46   48 1   
    53   53   54 1   
    54   53   57 1   
    55   54   55 1   
    56   54   58 1   
    57   54   59 1   
    58   55   56 2   
    59   55   60 1   
    60   60   61 1   
    61   60   68 1   
    62   61   62 1   
    63   61   64 1   
    64   61   69 1   
    65   62   63 2   
    66   62   72 1   
    67   64   65 1   
    68   64   70 1   
    69   64   71 1   
    70   65   66 1   
    71   65   67 1   
    72   72   73 1   
    73   72   76 1   
    74   73   74 1   
    75   73   77 1   
    76   73   78 1   
    77   74   75 2   
    78   74   79 1   
    79   79   80 1   
    80   79   86 1   
    81   80   81 1   
    82   80   83 1   
    83   80   87 1   
    84   81   82 2   
    85   81   93 1   
    86   83   84 1   
    87   83   85 1   
    88   83   88 1   
    89   84   90 1   
    90   84   91 1   
    91   84   92 1   
    92   85   89 1   
    93   93   94 1   
    94   93  101 1   
    95   94   95 1   
    96   94   97 1   
    97   94  102 1   
    98   95   96 2   
    99   95  112 1   
   100   97   98 1   
   101   97   99 1   
   102   97  103 1   
   103   98  100 1   
   104   98  104 1   
   105   98  105 1   
   106   99  106 1   
   107   99  107 1   
   108   99  108 1   
   109  100  109 1   
   110  100  110 1   
   111  100  111 1   
   112  112  113 1   
   113  112  119 1   
   114  113  114 1   
   115  113  116 1   
   116  113  120 1   
   117  114  115 2   
   118  114  126 1   
   119  116  117 1   
   120  116  118 1   
   121  116  121 1   
   122  117  123 1   
   123  117  124 1   
   124  117  125 1   
   125  118  122 1   
   126  126  127 1   
   127  126  133 1   
   128  127  128 1   
   129  127  130 1   
   130  127  134 1   
   131  128  129 2   
   132  128  140 1   
   133  130  131 1   
   134  130  132 1   
   135  130  135 1   
   136  131  137 1   
   137  131  138 1   
   138  131  139 1   
   139  132  136 1   
   140  140  141 1   
   141  140  149 1   
   142  141  142 1   
   143  141  144 1   
   144  141  150 1   
   145  142  143 2   
   146  142  162 1   
   147  144  145 1   
   148  144  151 1   
   149  144  152 1   
   150  145  146 1   
   151  145  153 1   
   152  145  154 1   
   153  146  147 1   
   154  146  155 1   
   155  146  156 1   
   156  147  148 1   
   157  147  157 1   
   158  147  158 1   
   159  148  159 1   
   160  148  160 1   
   161  148  161 1   
   162  162  163 1   
   163  162  171 1   
   164  163  164 1   
   165  163  166 1   
   166  163  172 1   
   167  164  165 2   
   168  164  177 1   
   169  166  167 1   
   170  166  173 1   
   171  166  174 1   
   172  167  168 1   
   173  167  175 1   
   174  167  176 1   
   175  168  169 1   
   176  168  170 1   
   177  177  178 1   
   178  177  182 1   
   179  178  179 1   
   180  178  180 1   
   181  178  181 1   
   182  184  185 1   
   183  184  186 1   
   184  187  188 1   
   185  187  189 1   
   186  190  191 1   
   187  190  192 1   
@<TRIPOS>SUBSTRUCTURE
     1 MOL         1 TEMP              0 ****  ****    0 ROOT
