@<TRIPOS>MOLECULE
MOL
  184   179     1     0     0
SMALL
resp


@<TRIPOS>ATOM
      1 C1          2.1280   -0.6020    4.3960 c3        1 MOL     -0.385928
      2 C2          3.3880   -0.1700    3.6780 c         1 MOL      0.689386
      3 O1          3.3360    0.7350    2.8110 o         1 MOL     -0.595824
      4 H1          2.3680   -0.8580    5.4280 hc        1 MOL      0.100672
      5 H2          1.4040    0.2130    4.3830 hc        1 MOL      0.100672
      6 H3          1.7050   -1.4740    3.8960 hc        1 MOL      0.100672
      7 N1          4.5250   -0.8150    3.9460 n         1 MOL     -0.641772
      8 C3          5.8890   -0.4530    3.4160 c3        1 MOL      0.274136
      9 C4          6.3310   -1.1420    2.0840 c         1 MOL      0.398470
     10 O2          7.1190   -0.5060    1.4140 o         1 MOL     -0.426541
     11 C5          6.8640   -0.7680    4.5190 c3        1 MOL     -0.250055
     12 C6          8.3360   -0.4320    4.1770 c         1 MOL      0.723179
     13 O3          8.6300    0.7720    4.0700 o         1 MOL     -0.716548
     14 O4          9.1780   -1.3930    4.0090 o         1 MOL     -0.716548
     15 H4          4.4340   -1.6450    4.5090 hn        1 MOL      0.310149
     16 H5          5.8600    0.6180    3.2070 h1        1 MOL      0.102379
     17 H6          6.8800   -1.8410    4.6980 hc        1 MOL      0.007378
     18 H7          6.5790   -0.2870    5.4620 hc        1 MOL      0.007378
     19 N2          5.9040   -2.3910    1.9170 n         1 MOL     -0.325177
     20 C7          6.2810   -3.2030    0.7240 c3        1 MOL      0.100896
     21 C8          5.7710   -2.5280   -0.5850 c         1 MOL      0.538523
     22 O5          4.5780   -2.4990   -0.8240 o         1 MOL     -0.745522
     23 C9          7.7380   -3.6200    0.7590 c3        1 MOL     -0.559562
     24 H8          5.3290   -2.7820    2.6460 hn        1 MOL      0.243754
     25 H9          5.7260   -4.1500    0.7220 h1        1 MOL      0.065561
     26 H10         8.0310   -4.4930    1.3470 hc        1 MOL      0.166299
     27 H11         7.9520   -3.8960   -0.2710 hc        1 MOL      0.166299
     28 H12         8.4480   -2.8120    0.9580 hc        1 MOL      0.166299
     29 N3          6.6410   -2.1120   -1.4630 n         1 MOL     -0.439497
     30 C10         6.3490   -1.2930   -2.6460 c3        1 MOL      0.350890
     31 C11         6.3690    0.2430   -2.2980 c         1 MOL      0.323826
     32 O6          6.3390    1.1400   -3.1620 o         1 MOL     -0.528723
     33 C12         7.2780   -1.7170   -3.7820 c3        1 MOL     -0.253628
     34 C13         8.7740   -1.6400   -3.5260 c         1 MOL      0.781277
     35 O7          9.1630   -1.3300   -2.3700 o         1 MOL     -0.733634
     36 O8          9.5400   -1.9390   -4.4850 o         1 MOL     -0.733634
     37 H13         7.6030   -2.3390   -1.2720 hn        1 MOL      0.259245
     38 H14         5.3420   -1.5420   -2.9910 h1        1 MOL     -0.000291
     39 H15         6.9790   -1.0220   -4.5640 hc        1 MOL      0.005280
     40 H16         6.9850   -2.7400   -4.0300 hc        1 MOL      0.005280
     41 N4          6.2820    0.5960   -0.9960 n         1 MOL     -0.055822
     42 C14         6.1160    1.9680   -0.5030 c3        1 MOL     -0.017412
     43 C15         4.8450    2.7660   -1.0170 c         1 MOL      0.594607
     44 O9          5.0050    3.9590   -1.1750 o         1 MOL     -0.577269
     45 H17         6.3800   -0.1540   -0.3300 hn        1 MOL      0.134150
     46 H18         6.9970    2.5250   -0.8300 h1        1 MOL      0.037819
     47 H19         6.0270    1.8560    0.5860 h1        1 MOL      0.037819
     48 N5          3.7260    2.1080   -1.4190 n         1 MOL     -0.241628
     49 C16         2.5390    2.7950   -2.0240 c3        1 MOL     -0.265921
     50 C17         2.0400    4.0340   -1.2700 c         1 MOL      0.595389
     51 O10         1.6150    3.8200   -0.0880 o         1 MOL     -0.475855
     52 C18         1.4330    1.8320   -2.3670 c3        1 MOL     -0.131141
     53 C19         1.8300    0.6120   -3.2010 c         1 MOL      0.555206
     54 N6          2.1430    0.8480   -4.4510 n         1 MOL     -0.822368
     55 O11         1.8560   -0.5370   -2.7940 o         1 MOL     -0.414372
     56 H20         3.6740    1.1190   -1.2740 hn        1 MOL      0.174173
     57 H21         3.0110    3.0910   -2.9650 h1        1 MOL      0.096218
     58 H22         0.6170    2.3640   -2.8600 hc        1 MOL      0.109502
     59 H23         1.0900    1.4410   -1.4160 hc        1 MOL      0.109502
     60 H24         2.1580    1.7510   -4.9070 hn        1 MOL      0.382855
     61 H25         2.1940    0.0230   -5.0350 hn        1 MOL      0.382855
     62 N7          1.9240    5.2000   -1.9150 n         1 MOL     -0.432800
     63 C20         1.4560    6.3590   -1.1920 c3        1 MOL      0.067795
     64 C21        -0.0900    6.5620   -1.2950 c         1 MOL      0.495132
     65 O12        -0.7110    5.9090   -2.1820 o         1 MOL     -0.490885
     66 H26         2.0260    5.2720   -2.9210 hn        1 MOL      0.288020
     67 H27         1.9900    7.2510   -1.5120 h1        1 MOL      0.050520
     68 H28         1.8190    6.2440   -0.1720 h1        1 MOL      0.050520
     69 N8         -0.6710    7.4660   -0.4880 n         1 MOL     -0.535238
     70 C22        -2.1980    7.6950   -0.4460 c3        1 MOL     -0.091152
     71 C23        -3.0690    6.5340    0.0310 c         1 MOL      0.438059
     72 O13        -4.2760    6.7430    0.1700 o         1 MOL     -0.553843
     73 C24        -2.5740    9.0500    0.1640 c3        1 MOL      0.361785
     74 C25        -2.4550    9.0860    1.7290 c3        1 MOL     -0.190646
     75 O14        -1.8680   10.0940   -0.4480 oh        1 MOL     -0.604495
     76 H29        -0.0740    8.0790    0.0370 hn        1 MOL      0.289008
     77 H30        -2.5970    7.6780   -1.4610 h1        1 MOL      0.135084
     78 H31        -3.6230    9.2470   -0.0270 h1        1 MOL      0.050775
     79 H32        -0.9530    9.9410   -0.1960 ho        1 MOL      0.377851
     80 H33        -3.2060    8.5570    2.3170 hc        1 MOL      0.041443
     81 H34        -1.4440    8.7260    1.9510 hc        1 MOL      0.041443
     82 H35        -2.3940   10.0840    2.1610 hc        1 MOL      0.041443
     83 N9         -2.4510    5.3790    0.2630 n         1 MOL     -0.149052
     84 C26        -3.0290    4.1520    0.8290 c3        1 MOL      0.039972
     85 C27        -2.4520    2.8430    0.1880 c         1 MOL      0.542882
     86 O15        -1.4600    2.9150   -0.5760 o         1 MOL     -0.414586
     87 C28        -3.1330    4.1500    2.3610 c3        1 MOL      0.242744
     88 C29        -1.7550    3.9020    3.0760 c3        1 MOL     -0.197008
     89 C30        -3.8130    5.4140    2.9150 c3        1 MOL     -0.238268
     90 C31        -0.5510    4.8680    2.7880 c3        1 MOL     -0.110110
     91 H36        -1.5590    5.2320   -0.1930 hn        1 MOL      0.106405
     92 H37        -4.0560    4.1980    0.4750 h1        1 MOL      0.026293
     93 H38        -3.8100    3.3560    2.6570 hc        1 MOL     -0.069171
     94 H39        -1.3980    2.9220    2.7880 hc        1 MOL      0.066648
     95 H40        -1.9730    3.9580    4.1360 hc        1 MOL      0.066648
     96 H41        -3.2080    6.2950    2.7230 hc        1 MOL      0.056804
     97 H42        -4.7920    5.5210    2.4600 hc        1 MOL      0.056804
     98 H43        -3.9330    5.2790    3.9890 hc        1 MOL      0.056804
     99 H44        -0.5000    4.9530    1.6910 hc        1 MOL      0.042174
    100 H45        -0.7600    5.8520    3.1820 hc        1 MOL      0.042174
    101 H46         0.3500    4.3940    3.1840 hc        1 MOL      0.042174
    102 N10        -3.1850    1.7150    0.4070 n         1 MOL     -0.908278
    103 C32        -2.8190    0.4740   -0.2210 c3        1 MOL      0.703214
    104 C33        -4.0410   -0.5070   -0.4440 c         1 MOL      0.179867
    105 O16        -3.8440   -1.6720   -0.5730 o         1 MOL     -0.318886
    106 C34        -1.8500   -0.1330    0.7580 c3        1 MOL     -0.254207
    107 C35        -0.8260   -0.9420   -0.0360 c         1 MOL      0.515850
    108 O17         0.1980   -1.3830    0.6020 o         1 MOL     -0.697113
    109 O18        -0.9540   -1.3260   -1.1860 o         1 MOL     -0.697113
    110 H47        -4.0150    1.7220    0.9800 hn        1 MOL      0.383555
    111 H48        -2.3250    0.7000   -1.1660 h1        1 MOL     -0.033546
    112 H49        -2.4670   -0.7200    1.4310 hc        1 MOL      0.091489
    113 H50        -1.3830    0.6770    1.3180 hc        1 MOL      0.091489
    114 N11        -5.2980    0.0230   -0.4540 n         1 MOL     -0.413318
    115 C36        -6.5380   -0.7060   -0.9150 c3        1 MOL      0.280149
    116 C37        -6.8420   -1.9670   -0.0720 c         1 MOL      0.249551
    117 O19        -7.0930   -1.7450    1.1350 o         1 MOL     -0.488029
    118 C38        -7.7160    0.3020   -0.9840 c3        1 MOL     -0.164997
    119 C39        -8.9620   -0.3990   -1.4330 ca        1 MOL      0.032948
    120 C40        -9.0570   -0.7040   -2.7980 ca        1 MOL     -0.099568
    121 C41       -10.0690   -0.7830   -0.6370 ca        1 MOL     -0.099568
    122 C42       -10.1710   -1.3610   -3.3970 ca        1 MOL     -0.155366
    123 C43       -11.1420   -1.4440   -1.1180 ca        1 MOL     -0.155366
    124 C44       -11.2210   -1.7600   -2.4730 ca        1 MOL     -0.093541
    125 H51        -5.5050    1.0060   -0.3700 hn        1 MOL      0.248957
    126 H52        -6.4910   -1.0130   -1.9620 h1        1 MOL     -0.044941
    127 H53        -7.4960    1.1530   -1.6360 hc        1 MOL      0.077922
    128 H54        -7.7760    0.6700    0.0420 hc        1 MOL      0.077922
    129 H55        -8.2900   -0.5010   -3.5240 ha        1 MOL      0.113378
    130 H56        -9.9440   -0.6020    0.4150 ha        1 MOL      0.113378
    131 H57       -10.3620   -1.5350   -4.4500 ha        1 MOL      0.126170
    132 H58       -11.9030   -1.7720   -0.4320 ha        1 MOL      0.126170
    133 H59       -12.1900   -2.1220   -2.7870 ha        1 MOL      0.097638
    134 N12        -6.8600   -3.2300   -0.5290 n         1 MOL     -0.047482
    135 C45        -6.9080   -4.4270    0.2710 c3        1 MOL      0.083355
    136 C46        -5.8620   -4.4950    1.3190 c         1 MOL      0.164216
    137 O20        -6.0390   -5.0970    2.3730 o         1 MOL     -0.498366
    138 C47        -6.6950   -5.6030   -0.7850 c3        1 MOL      0.069656
    139 C48        -7.1230   -4.9460   -2.0830 c3        1 MOL     -0.370569
    140 C49        -6.6190   -3.5800   -1.9200 c3        1 MOL      0.203658
    141 H60        -7.9410   -4.5220    0.6200 h1        1 MOL      0.064045
    142 H61        -5.7120   -6.0760   -0.7400 hc        1 MOL      0.033418
    143 H62        -7.3290   -6.4340   -0.4530 hc        1 MOL      0.033418
    144 H63        -6.6120   -5.3460   -2.9610 hc        1 MOL      0.101517
    145 H64        -8.2050   -4.8910   -2.0980 hc        1 MOL      0.101517
    146 H65        -5.5570   -3.6030   -2.1720 h1        1 MOL     -0.005886
    147 H66        -7.1610   -2.9150   -2.5970 h1        1 MOL     -0.005886
    148 N13        -4.6490   -3.9880    1.1460 n         1 MOL     -0.017580
    149 C50        -3.6790   -4.0460    2.2630 c3        1 MOL     -0.070906
    150 C51        -3.8800   -2.9620    3.3370 c         1 MOL      0.362819
    151 O21        -3.5360   -3.1460    4.4980 o         1 MOL     -0.525586
    152 C52        -2.2380   -3.9090    1.7350 c3        1 MOL      0.181116
    153 C53        -1.8560   -5.0750    0.7790 c3        1 MOL     -0.237122
    154 C54        -0.3800   -5.1220    0.4080 c         1 MOL      0.758199
    155 O22         0.4330   -5.3940    1.3080 o         1 MOL     -0.717028
    156 O23         0.0300   -4.8440   -0.7490 o         1 MOL     -0.717028
    157 H67        -4.4750   -3.4340    0.3250 hn        1 MOL      0.151080
    158 H68        -3.7850   -4.9780    2.8260 h1        1 MOL      0.134406
    159 H69        -1.5490   -3.9010    2.5730 hc        1 MOL     -0.013106
    160 H70        -2.0360   -2.9870    1.1710 hc        1 MOL     -0.013106
    161 H71        -2.4470   -4.9560   -0.1290 hc        1 MOL     -0.007639
    162 H72        -2.1580   -6.0230    1.2400 hc        1 MOL     -0.007639
    163 N14        -4.6140   -1.8390    3.0920 n         1 MOL     -0.022734
    164 C55        -4.9570   -0.7490    4.0100 c3        1 MOL     -0.240039
    165 H73        -5.1710   -1.1590    4.9970 h1        1 MOL      0.086807
    166 H74        -4.1190   -0.0550    4.0790 h1        1 MOL      0.086807
    167 H75        -5.8350   -0.2220    3.6370 h1        1 MOL      0.086807
    168 H76        -4.9890   -1.7480    2.1550 hn        1 MOL      0.099697
    169 Ca1         1.7420   -2.7140   -1.1130 Ca        1 MOL      1.785684
    170 O24         2.6570   -3.4070    1.3020 oh        1 MOL     -0.852549
    171 H77         3.4650   -3.8870    1.4600 ho        1 MOL      0.412294
    172 H78         2.1220   -3.5870    2.0780 ho        1 MOL      0.412294
    173 O25         3.1840   -3.6050   -3.4330 oh        1 MOL     -0.852549
    174 H79         3.4670   -3.6130   -4.3500 ho        1 MOL      0.412294
    175 H80         3.7620   -4.2340   -2.9950 ho        1 MOL      0.412294
    176 O26         2.5090   -0.2060    0.1370 oh        1 MOL     -0.852549
    177 H81         2.9310    0.2900    0.8310 ho        1 MOL      0.412294
    178 H82         1.7530   -0.6170    0.5570 ho        1 MOL      0.412294
    179 O27         0.1640   -3.2930   -3.4360 oh        1 MOL     -0.852549
    180 H83         0.2380   -4.0160   -4.0440 ho        1 MOL      0.412294
    181 H84        -0.7530   -3.2670   -3.1910 ho        1 MOL      0.412294
    182 O28         3.1940   -5.1950   -0.8170 oh        1 MOL     -0.852549
    183 H85         3.0570   -6.1440   -0.7950 ho        1 MOL      0.412294
    184 H86         4.0850   -5.0890   -1.1320 ho        1 MOL      0.412294
@<TRIPOS>BOND
     1    1    2 1   
     2    1    4 1   
     3    1    5 1   
     4    1    6 1   
     5    2    3 2   
     6    2    7 1   
     7    7    8 1   
     8    7   15 1   
     9    8    9 1   
    10    8   11 1   
    11    8   16 1   
    12    9   10 2   
    13    9   19 1   
    14   11   12 1   
    15   11   17 1   
    16   11   18 1   
    17   12   13 1   
    18   12   14 1   
    19   19   20 1   
    20   19   24 1   
    21   20   21 1   
    22   20   23 1   
    23   20   25 1   
    24   21   22 2   
    25   21   29 1   
    26   23   26 1   
    27   23   27 1   
    28   23   28 1   
    29   29   30 1   
    30   29   37 1   
    31   30   31 1   
    32   30   33 1   
    33   30   38 1   
    34   31   32 2   
    35   31   41 1   
    36   33   34 1   
    37   33   39 1   
    38   33   40 1   
    39   34   35 1   
    40   34   36 1   
    41   41   42 1   
    42   41   45 1   
    43   42   43 1   
    44   42   46 1   
    45   42   47 1   
    46   43   44 2   
    47   43   48 1   
    48   48   49 1   
    49   48   56 1   
    50   49   50 1   
    51   49   52 1   
    52   49   57 1   
    53   50   51 2   
    54   50   62 1   
    55   52   53 1   
    56   52   58 1   
    57   52   59 1   
    58   53   54 1   
    59   53   55 2   
    60   54   60 1   
    61   54   61 1   
    62   62   63 1   
    63   62   66 1   
    64   63   64 1   
    65   63   67 1   
    66   63   68 1   
    67   64   65 2   
    68   64   69 1   
    69   69   70 1   
    70   69   76 1   
    71   70   71 1   
    72   70   73 1   
    73   70   77 1   
    74   71   72 2   
    75   71   83 1   
    76   73   74 1   
    77   73   75 1   
    78   73   78 1   
    79   74   80 1   
    80   74   81 1   
    81   74   82 1   
    82   75   79 1   
    83   83   84 1   
    84   83   91 1   
    85   84   85 1   
    86   84   87 1   
    87   84   92 1   
    88   85   86 2   
    89   85  102 1   
    90   87   88 1   
    91   87   89 1   
    92   87   93 1   
    93   88   90 1   
    94   88   94 1   
    95   88   95 1   
    96   89   96 1   
    97   89   97 1   
    98   89   98 1   
    99   90   99 1   
   100   90  100 1   
   101   90  101 1   
   102  102  103 1   
   103  102  110 1   
   104  103  104 1   
   105  103  106 1   
   106  103  111 1   
   107  104  105 2   
   108  104  114 1   
   109  106  107 1   
   110  106  112 1   
   111  106  113 1   
   112  107  108 1   
   113  107  109 1   
   114  114  115 1   
   115  114  125 1   
   116  115  116 1   
   117  115  118 1   
   118  115  126 1   
   119  116  117 2   
   120  116  134 1   
   121  118  119 1   
   122  118  127 1   
   123  118  128 1   
   124  119  120 ar  
   125  119  121 ar  
   126  120  122 ar  
   127  120  129 1   
   128  121  123 ar  
   129  121  130 1   
   130  122  124 ar  
   131  122  131 1   
   132  123  124 ar  
   133  123  132 1   
   134  124  133 1   
   135  134  135 1   
   136  134  140 1   
   137  135  136 1   
   138  135  138 1   
   139  135  141 1   
   140  136  137 2   
   141  136  148 1   
   142  138  139 1   
   143  138  142 1   
   144  138  143 1   
   145  139  140 1   
   146  139  144 1   
   147  139  145 1   
   148  140  146 1   
   149  140  147 1   
   150  148  149 1   
   151  148  157 1   
   152  149  150 1   
   153  149  152 1   
   154  149  158 1   
   155  150  151 2   
   156  150  163 1   
   157  152  153 1   
   158  152  159 1   
   159  152  160 1   
   160  153  154 1   
   161  153  161 1   
   162  153  162 1   
   163  154  155 1   
   164  154  156 1   
   165  163  164 1   
   166  163  168 1   
   167  164  165 1   
   168  164  166 1   
   169  164  167 1   
   170  170  171 1   
   171  170  172 1   
   172  173  174 1   
   173  173  175 1   
   174  176  177 1   
   175  176  178 1   
   176  179  180 1   
   177  179  181 1   
   178  182  183 1   
   179  182  184 1   
@<TRIPOS>SUBSTRUCTURE
     1 MOL         1 TEMP              0 ****  ****    0 ROOT
