@<TRIPOS>MOLECULE
MOL
  192   187     1     0     0
SMALL
resp


@<TRIPOS>ATOM
      1 C1          9.5180    1.3420    1.3130 c3        1 MOL     -0.508529
      2 C2          8.4770    0.3810    0.6830 c         1 MOL      0.672294
      3 O1          7.4980    0.0390    1.3360 o         1 MOL     -0.631003
      4 H1          9.1750    1.6510    2.3010 hc        1 MOL      0.134770
      5 H2         10.4760    0.8320    1.4050 hc        1 MOL      0.134770
      6 H3          9.6330    2.2200    0.6780 hc        1 MOL      0.134770
      7 N1          8.7300    0.0590   -0.5960 n         1 MOL     -0.535196
      8 C3          7.7900   -0.3060   -1.6550 c3        1 MOL      0.188963
      9 C4          7.2860   -1.7700   -1.5760 c         1 MOL      0.456276
     10 O2          7.3600   -2.5210   -2.5360 o         1 MOL     -0.531300
     11 C5          8.3920    0.0320   -2.9860 c3        1 MOL     -0.247943
     12 C6          8.9450    1.4010   -3.1080 c         1 MOL      0.749662
     13 O3          8.3520    2.2920   -3.7950 o         1 MOL     -0.672359
     14 O4         10.0040    1.6900   -2.5070 o         1 MOL     -0.672359
     15 H4          9.5950    0.3680   -0.9930 hn        1 MOL      0.241508
     16 H5          6.9240    0.3460   -1.4870 h1        1 MOL      0.089250
     17 H6          7.6370   -0.1280   -3.7520 hc        1 MOL      0.051959
     18 H7          9.1590   -0.7290   -3.1270 hc        1 MOL      0.051959
     19 N2          6.7940   -2.1870   -0.4400 n         1 MOL     -0.255926
     20 C7          6.5200   -3.5680   -0.0520 c3        1 MOL      0.058816
     21 C8          5.0500   -4.0040   -0.1060 c         1 MOL      0.574137
     22 O5          4.8480   -5.1920   -0.1560 o         1 MOL     -0.564234
     23 C9          7.0600   -3.9100    1.3290 c3        1 MOL     -0.219621
     24 C10         8.6110   -4.0930    1.4560 c3        1 MOL      0.418025
     25 C11         8.8940   -4.5040    2.9620 c3        1 MOL     -0.179039
     26 C12        10.3510   -4.6780    3.2830 c3        1 MOL     -0.194532
     27 N3         11.0030   -3.4110    3.1130 n4        1 MOL     -0.190587
     28 H8          6.8320   -1.4830    0.2760 hn        1 MOL      0.200687
     29 H9          7.0190   -4.1530   -0.8310 h1        1 MOL      0.090594
     30 H10         6.6290   -4.8690    1.6140 hc        1 MOL      0.043596
     31 H11         6.7370   -3.2040    2.0920 hc        1 MOL      0.043596
     32 H12         9.1080   -3.1380    1.2770 hc        1 MOL     -0.097057
     33 H13         8.8490   -4.7440    0.6280 hc        1 MOL     -0.097057
     34 H14         8.3880   -5.4610    3.0810 hc        1 MOL      0.080994
     35 H15         8.3480   -3.8150    3.6080 hc        1 MOL      0.080994
     36 H16        10.7990   -5.4970    2.7240 hx        1 MOL      0.147197
     37 H17        10.3240   -4.9810    4.3340 hx        1 MOL      0.147197
     38 H18        10.5910   -2.6120    3.5870 hn        1 MOL      0.261866
     39 H19        11.8870   -3.3890    3.6110 hn        1 MOL      0.261866
     40 H20        11.1710   -3.2720    2.1320 hn        1 MOL      0.261866
     41 N4          3.9740   -3.1480   -0.0680 n         1 MOL     -0.545839
     42 C13         3.8740   -1.7990    0.6650 c3        1 MOL      0.301894
     43 C14         3.8690   -0.5390   -0.2200 c         1 MOL     -0.005862
     44 O6          3.6760   -0.6810   -1.4520 o         1 MOL     -0.338201
     45 C15         2.6640   -1.7920    1.6040 c3        1 MOL     -0.553762
     46 C16         1.3610   -1.9770    0.7370 c         1 MOL      0.863467
     47 O7          0.5670   -1.0020    0.5830 o         1 MOL     -0.689279
     48 O8          1.1270   -3.1560    0.3000 o         1 MOL     -0.689279
     49 H21         3.1070   -3.6240   -0.2820 hn        1 MOL      0.369513
     50 H22         4.7530   -1.6540    1.2910 h1        1 MOL      0.064394
     51 H23         2.7740   -0.8410    2.1260 hc        1 MOL      0.129033
     52 H24         2.6410   -2.5110    2.4150 hc        1 MOL      0.129033
     53 N5          4.1110    0.6410    0.3500 n         1 MOL     -0.231672
     54 C17         4.0290    1.9500   -0.2490 c3        1 MOL     -0.031704
     55 C18         2.6990    2.4100   -0.8050 c         1 MOL      0.273668
     56 O9          1.6150    1.8110   -0.5650 o         1 MOL     -0.253475
     57 H25         4.3420    0.6230    1.3270 hn        1 MOL      0.276287
     58 H26         4.8210    2.0090   -0.9930 h1        1 MOL      0.086070
     59 H27         4.2710    2.7390    0.4710 h1        1 MOL      0.086070
     60 N6          2.8170    3.3350   -1.7570 n         1 MOL     -0.300433
     61 C19         1.7700    4.2030   -2.4150 c3        1 MOL      0.290512
     62 C20         2.2820    5.6780   -2.4630 c         1 MOL      0.370608
     63 O10         3.5280    5.8760   -2.5270 o         1 MOL     -0.516167
     64 C21         1.2300    3.7130   -3.7940 c3        1 MOL     -0.360071
     65 C22         0.8130    2.2590   -3.7480 c         1 MOL      0.713852
     66 O11        -0.2470    1.9210   -3.1250 o         1 MOL     -0.665817
     67 O12         1.4550    1.3880   -4.3550 o         1 MOL     -0.665817
     68 H28         3.8000    3.5330   -1.8950 hn        1 MOL      0.255955
     69 H29         0.8940    4.1380   -1.7620 h1        1 MOL     -0.055370
     70 H30         1.9700    3.8270   -4.5910 hc        1 MOL      0.102869
     71 H31         0.3690    4.2550   -4.1800 hc        1 MOL      0.102869
     72 N7          1.4370    6.6480   -2.4260 n         1 MOL     -0.348318
     73 C23         0.0750    6.6820   -2.1200 c3        1 MOL      0.019183
     74 C24        -0.3430    6.0370   -0.7650 c         1 MOL      0.532325
     75 O13         0.5200    5.9580    0.1040 o         1 MOL     -0.487855
     76 H32         1.8470    7.5560   -2.5540 hn        1 MOL      0.297642
     77 H33        -0.4390    6.1030   -2.8790 h1        1 MOL      0.044386
     78 H34        -0.3370    7.6830   -2.1890 h1        1 MOL      0.044386
     79 N8         -1.6020    5.6680   -0.6310 n         1 MOL     -0.526488
     80 C25        -2.1280    5.1100    0.6370 c3        1 MOL      0.018552
     81 C26        -1.4150    3.8540    1.0560 c         1 MOL      0.737965
     82 O14        -1.0240    3.0040    0.2290 o         1 MOL     -0.610046
     83 C27        -3.6320    4.9820    0.4870 c3        1 MOL      0.261099
     84 C28        -4.2420    4.5300    1.8310 c3        1 MOL     -0.382000
     85 O15        -3.9510    4.0390   -0.6120 oh        1 MOL     -0.543428
     86 H35        -2.3540    5.9010   -1.2650 hn        1 MOL      0.318950
     87 H36        -1.8900    5.8910    1.3670 h1        1 MOL      0.068004
     88 H37        -3.9880    5.9910    0.2780 h1        1 MOL      0.047753
     89 H38        -4.8680    3.8420   -0.4190 ho        1 MOL      0.371299
     90 H39        -3.9770    5.3780    2.4560 hc        1 MOL      0.097967
     91 H40        -5.3260    4.4180    1.7440 hc        1 MOL      0.097967
     92 H41        -3.8290    3.5730    2.1740 hc        1 MOL      0.097967
     93 N9         -1.2800    3.6380    2.3840 n         1 MOL     -0.606305
     94 C29        -0.8430    2.3780    3.0560 c3        1 MOL      0.047525
     95 C30        -1.7040    1.1080    2.6790 c         1 MOL      0.448531
     96 O16        -1.7840    0.7320    1.5180 o         1 MOL     -0.532295
     97 C31         0.7260    2.1070    2.9190 c3        1 MOL      0.334745
     98 C32         1.6530    3.3360    2.9200 c3        1 MOL     -0.314746
     99 C33         1.2560    0.9750    3.8080 c3        1 MOL     -0.205740
    100 C34         1.4670    4.3660    4.0830 c3        1 MOL     -0.295120
    101 H42        -1.4710    4.4060    3.0230 hn        1 MOL      0.302440
    102 H43        -0.9710    2.6810    4.0900 h1        1 MOL      0.034216
    103 H44         0.8410    1.7610    1.8840 hc        1 MOL     -0.166168
    104 H45         1.5370    3.8760    1.9840 hc        1 MOL      0.153790
    105 H46         2.6770    2.9800    3.0080 hc        1 MOL      0.153790
    106 H47         0.7460    0.0130    3.6980 hc        1 MOL      0.030807
    107 H48         2.3300    0.9480    3.6550 hc        1 MOL      0.030807
    108 H49         1.0050    1.2940    4.8260 hc        1 MOL      0.030807
    109 H50         2.1410    5.2030    3.9480 hc        1 MOL      0.083339
    110 H51         0.4790    4.8130    4.1600 hc        1 MOL      0.083339
    111 H52         1.7690    3.8700    5.0040 hc        1 MOL      0.083339
    112 N10        -2.1680    0.3030    3.6350 n         1 MOL     -0.288833
    113 C35        -2.6700   -1.0910    3.6460 c3        1 MOL     -0.015283
    114 C36        -4.1730   -1.1210    3.1620 c         1 MOL      0.446100
    115 O17        -4.6890   -2.1750    2.8880 o         1 MOL     -0.536624
    116 C37        -2.5880   -1.6250    5.1030 c3        1 MOL      0.448998
    117 C38        -3.5400   -0.9360    6.1110 c3        1 MOL     -0.312849
    118 O18        -1.2510   -1.5790    5.5720 oh        1 MOL     -0.618903
    119 H53        -2.0950    0.7020    4.5600 hn        1 MOL      0.179436
    120 H54        -2.0800   -1.6910    2.9560 h1        1 MOL      0.110225
    121 H55        -2.9000   -2.6660    5.0660 h1        1 MOL      0.019400
    122 H56        -1.1760   -0.8430    6.1860 ho        1 MOL      0.381505
    123 H57        -3.3880   -1.3470    7.1120 hc        1 MOL      0.070616
    124 H58        -3.1910    0.0940    6.0430 hc        1 MOL      0.070616
    125 H59        -4.5870   -0.9120    5.7980 hc        1 MOL      0.070616
    126 N11        -4.7440    0.0680    2.9890 n         1 MOL     -0.233802
    127 C39        -6.1260    0.1930    2.3720 c3        1 MOL     -0.081390
    128 C40        -6.1120   -0.4180    0.9950 c         1 MOL      0.473078
    129 O19        -5.4760    0.1530    0.1040 o         1 MOL     -0.433874
    130 C41        -6.4570    1.6790    2.4320 c3        1 MOL      0.425561
    131 C42        -7.8480    1.8570    1.8440 c3        1 MOL     -0.143903
    132 O20        -6.3620    2.0530    3.7560 oh        1 MOL     -0.613092
    133 H60        -4.2340    0.8730    3.3230 hn        1 MOL      0.145360
    134 H61        -6.8420   -0.4100    2.9370 h1        1 MOL      0.078688
    135 H62        -5.8120    2.3140    1.8270 h1        1 MOL     -0.087409
    136 H63        -5.6850    2.7270    3.8330 ho        1 MOL      0.387903
    137 H64        -8.5700    1.1870    2.3000 hc        1 MOL      0.044015
    138 H65        -8.2880    2.8420    2.0210 hc        1 MOL      0.044015
    139 H66        -7.9050    1.7220    0.7630 hc        1 MOL      0.044015
    140 N12        -6.7390   -1.6290    0.8090 n         1 MOL     -0.344196
    141 C43        -7.1100   -2.1960   -0.4990 c3        1 MOL     -0.010443
    142 C44        -5.8250   -2.3270   -1.3360 c         1 MOL      0.533201
    143 O21        -5.7240   -1.6400   -2.4000 o         1 MOL     -0.523036
    144 C45        -8.2120   -1.3860   -1.2300 c3        1 MOL     -0.229948
    145 C46        -9.4810   -1.5040   -0.4640 c3        1 MOL      0.184785
    146 C47       -10.6880   -0.9510   -1.0980 c3        1 MOL     -0.093813
    147 C48       -11.0110   -1.5000   -2.5210 c3        1 MOL     -0.030498
    148 N13       -12.3780   -1.0740   -2.8110 n4        1 MOL     -0.014180
    149 H67        -7.2210   -2.0740    1.5760 hn        1 MOL      0.250359
    150 H68        -7.5170   -3.1990   -0.4230 h1        1 MOL      0.079101
    151 H69        -8.3680   -1.8140   -2.2190 hc        1 MOL      0.088289
    152 H70        -7.9460   -0.3340   -1.3040 hc        1 MOL      0.088289
    153 H71        -9.2940   -0.9250    0.4370 hc        1 MOL     -0.032115
    154 H72        -9.5720   -2.5710   -0.2320 hc        1 MOL     -0.032115
    155 H73       -10.6290    0.1330   -1.0700 hc        1 MOL      0.027156
    156 H74       -11.5320   -1.2280   -0.4540 hc        1 MOL      0.027156
    157 H75       -11.0310   -2.5880   -2.5920 hx        1 MOL      0.102746
    158 H76       -10.4120   -1.1200   -3.3480 hx        1 MOL      0.102746
    159 H77       -12.5280   -0.0730   -2.8060 hn        1 MOL      0.166967
    160 H78       -12.8230   -1.4260   -3.6400 hn        1 MOL      0.166967
    161 H79       -12.9230   -1.2690   -1.9810 hn        1 MOL      0.166967
    162 N14        -4.9000   -3.0980   -0.7920 n         1 MOL     -0.431111
    163 C49        -3.5670   -3.3730   -1.4680 c3        1 MOL      0.305115
    164 C50        -2.3200   -2.9340   -0.7270 c         1 MOL      0.308856
    165 O22        -1.7790   -1.8470   -0.9470 o         1 MOL     -0.567434
    166 C51        -3.6060   -4.7380   -2.1750 c3        1 MOL     -0.202912
    167 C52        -4.5080   -4.6680   -3.3990 c3        1 MOL     -0.224777
    168 C53        -4.6920   -6.0780   -3.9450 c         1 MOL      0.713865
    169 O23        -4.4580   -6.3570   -5.1530 o         1 MOL     -0.642045
    170 O24        -5.1060   -6.9300   -3.1540 o         1 MOL     -0.642045
    171 H80        -5.0940   -3.5620    0.0920 hn        1 MOL      0.271331
    172 H81        -3.5320   -2.6340   -2.2590 h1        1 MOL      0.100623
    173 H82        -4.0030   -5.4690   -1.4710 hc        1 MOL      0.087671
    174 H83        -2.6130   -5.0010   -2.5380 hc        1 MOL      0.087671
    175 H84        -4.0650   -3.9660   -4.0980 hc        1 MOL      0.044794
    176 H85        -5.4590   -4.2110   -3.1330 hc        1 MOL      0.044794
    177 N15        -1.7850   -3.6230    0.2770 n         1 MOL     -0.261023
    178 C54        -2.2590   -4.8820    0.9400 c3        1 MOL      0.007502
    179 H86        -1.4130   -5.5510    1.0960 h1        1 MOL      0.024606
    180 H87        -2.7110   -4.6380    1.9020 h1        1 MOL      0.024606
    181 H88        -2.9970   -5.3730    0.3050 h1        1 MOL      0.024606
    182 H89        -0.9800   -3.1800    0.6920 hn        1 MOL      0.299531
    183 Ca1        -0.7430    0.5830   -0.9410 Ca        1 MOL      1.692182
    184 O25        -1.9110   -0.1300   -3.5130 oh        1 MOL     -0.836355
    185 H90        -1.3370    0.4520   -4.0100 ho        1 MOL      0.390910
    186 H91        -1.5740   -1.0160   -3.6830 ho        1 MOL      0.390910
    187 O26        -3.3060    1.3510   -0.8770 oh        1 MOL     -0.836355
    188 H92        -3.6160    2.2130   -0.6130 ho        1 MOL      0.390910
    189 H93        -3.9230    0.7370   -0.4860 ho        1 MOL      0.390910
    190 O27         0.8840   -0.6720   -2.7020 oh        1 MOL     -0.836355
    191 H94         1.0140   -0.0020   -3.3700 ho        1 MOL      0.390910
    192 H95         1.6020   -1.2900   -2.8460 ho        1 MOL      0.390910
@<TRIPOS>BOND
     1    1    2 1   
     2    1    4 1   
     3    1    5 1   
     4    1    6 1   
     5    2    3 2   
     6    2    7 1   
     7    7    8 1   
     8    7   15 1   
     9    8    9 1   
    10    8   11 1   
    11    8   16 1   
    12    9   10 2   
    13    9   19 1   
    14   11   12 1   
    15   11   17 1   
    16   11   18 1   
    17   12   13 1   
    18   12   14 1   
    19   19   20 1   
    20   19   28 1   
    21   20   21 1   
    22   20   23 1   
    23   20   29 1   
    24   21   22 2   
    25   21   41 1   
    26   23   24 1   
    27   23   30 1   
    28   23   31 1   
    29   24   25 1   
    30   24   32 1   
    31   24   33 1   
    32   25   26 1   
    33   25   34 1   
    34   25   35 1   
    35   26   27 1   
    36   26   36 1   
    37   26   37 1   
    38   27   38 1   
    39   27   39 1   
    40   27   40 1   
    41   41   42 1   
    42   41   49 1   
    43   42   43 1   
    44   42   45 1   
    45   42   50 1   
    46   43   44 2   
    47   43   53 1   
    48   45   46 1   
    49   45   51 1   
    50   45   52 1   
    51   46   47 1   
    52   46   48 1   
    53   53   54 1   
    54   53   57 1   
    55   54   55 1   
    56   54   58 1   
    57   54   59 1   
    58   55   56 2   
    59   55   60 1   
    60   60   61 1   
    61   60   68 1   
    62   61   62 1   
    63   61   64 1   
    64   61   69 1   
    65   62   63 2   
    66   62   72 1   
    67   64   65 1   
    68   64   70 1   
    69   64   71 1   
    70   65   66 1   
    71   65   67 1   
    72   72   73 1   
    73   72   76 1   
    74   73   74 1   
    75   73   77 1   
    76   73   78 1   
    77   74   75 2   
    78   74   79 1   
    79   79   80 1   
    80   79   86 1   
    81   80   81 1   
    82   80   83 1   
    83   80   87 1   
    84   81   82 2   
    85   81   93 1   
    86   83   84 1   
    87   83   85 1   
    88   83   88 1   
    89   84   90 1   
    90   84   91 1   
    91   84   92 1   
    92   85   89 1   
    93   93   94 1   
    94   93  101 1   
    95   94   95 1   
    96   94   97 1   
    97   94  102 1   
    98   95   96 2   
    99   95  112 1   
   100   97   98 1   
   101   97   99 1   
   102   97  103 1   
   103   98  100 1   
   104   98  104 1   
   105   98  105 1   
   106   99  106 1   
   107   99  107 1   
   108   99  108 1   
   109  100  109 1   
   110  100  110 1   
   111  100  111 1   
   112  112  113 1   
   113  112  119 1   
   114  113  114 1   
   115  113  116 1   
   116  113  120 1   
   117  114  115 2   
   118  114  126 1   
   119  116  117 1   
   120  116  118 1   
   121  116  121 1   
   122  117  123 1   
   123  117  124 1   
   124  117  125 1   
   125  118  122 1   
   126  126  127 1   
   127  126  133 1   
   128  127  128 1   
   129  127  130 1   
   130  127  134 1   
   131  128  129 2   
   132  128  140 1   
   133  130  131 1   
   134  130  132 1   
   135  130  135 1   
   136  131  137 1   
   137  131  138 1   
   138  131  139 1   
   139  132  136 1   
   140  140  141 1   
   141  140  149 1   
   142  141  142 1   
   143  141  144 1   
   144  141  150 1   
   145  142  143 2   
   146  142  162 1   
   147  144  145 1   
   148  144  151 1   
   149  144  152 1   
   150  145  146 1   
   151  145  153 1   
   152  145  154 1   
   153  146  147 1   
   154  146  155 1   
   155  146  156 1   
   156  147  148 1   
   157  147  157 1   
   158  147  158 1   
   159  148  159 1   
   160  148  160 1   
   161  148  161 1   
   162  162  163 1   
   163  162  171 1   
   164  163  164 1   
   165  163  166 1   
   166  163  172 1   
   167  164  165 2   
   168  164  177 1   
   169  166  167 1   
   170  166  173 1   
   171  166  174 1   
   172  167  168 1   
   173  167  175 1   
   174  167  176 1   
   175  168  169 1   
   176  168  170 1   
   177  177  178 1   
   178  177  182 1   
   179  178  179 1   
   180  178  180 1   
   181  178  181 1   
   182  184  185 1   
   183  184  186 1   
   184  187  188 1   
   185  187  189 1   
   186  190  191 1   
   187  190  192 1   
@<TRIPOS>SUBSTRUCTURE
     1 MOL         1 TEMP              0 ****  ****    0 ROOT
