@<TRIPOS>MOLECULE
MOL
  194   186     1     0     0
SMALL
resp


@<TRIPOS>ATOM
      1 C1          5.2380   -0.2610    3.9290 c3        1 MOL     -0.425772
      2 C2          5.9200    0.1520    2.6300 c         1 MOL      0.721056
      3 O1          5.2620    0.1010    1.5890 o         1 MOL     -0.644317
      4 H1          4.5140   -1.0480    3.7240 hc        1 MOL      0.104155
      5 H2          5.9860   -0.6290    4.6310 hc        1 MOL      0.104155
      6 H3          4.7260    0.5990    4.3600 hc        1 MOL      0.104155
      7 N1          7.1960    0.5290    2.6130 n         1 MOL     -0.369170
      8 C3          7.9450    1.1330    1.5080 c3        1 MOL     -0.127979
      9 C4          8.6630    0.0750    0.5560 c         1 MOL      0.470592
     10 O2          9.0640    0.4150   -0.5920 o         1 MOL     -0.495754
     11 C5          8.9930    2.1300    1.9770 c3        1 MOL     -0.165007
     12 C6          9.9470    1.7020    3.0790 c         1 MOL      0.645903
     13 O3         11.2020    1.8180    2.9020 o         1 MOL     -0.681200
     14 O4          9.4510    1.1250    4.0940 o         1 MOL     -0.681200
     15 H4          7.6690    0.4850    3.5050 hn        1 MOL      0.221457
     16 H5          7.3020    1.6970    0.8330 h1        1 MOL      0.139040
     17 H6          8.5020    2.9930    2.4100 hc        1 MOL      0.062640
     18 H7          9.5780    2.4580    1.1130 hc        1 MOL      0.062640
     19 N2          8.7580   -1.1670    0.9810 n         1 MOL     -0.238416
     20 C7          9.2750   -2.3750    0.2650 c3        1 MOL      0.070185
     21 C8          8.6060   -2.5630   -1.1220 c         1 MOL      0.392992
     22 O5          9.2210   -2.6220   -2.2080 o         1 MOL     -0.520973
     23 C9         10.8100   -2.4340    0.4400 c3        1 MOL     -0.287437
     24 C10        11.2960   -3.8990    0.4920 c3        1 MOL      0.184486
     25 C11        12.8500   -3.9040    0.5800 c3        1 MOL     -0.152222
     26 C12        13.4000   -5.3550    0.3900 c3        1 MOL     -0.086407
     27 N3         12.8650   -6.2800    1.4890 n4        1 MOL     -0.395380
     28 H8          8.5000   -1.3370    1.9450 hn        1 MOL      0.198173
     29 H9          8.9050   -3.2510    0.8080 h1        1 MOL      0.033959
     30 H10        11.1610   -1.9070    1.3220 hc        1 MOL      0.138019
     31 H11        11.3010   -2.0000   -0.4350 hc        1 MOL      0.138019
     32 H12        10.9170   -4.3920   -0.3950 hc        1 MOL     -0.012961
     33 H13        10.9150   -4.4530    1.3530 hc        1 MOL     -0.012961
     34 H14        13.1410   -3.5740    1.5770 hc        1 MOL      0.073660
     35 H15        13.1830   -3.2270   -0.2070 hc        1 MOL      0.073660
     36 H16        14.4850   -5.3970    0.4000 hx        1 MOL      0.139980
     37 H17        13.2000   -5.6950   -0.6270 hx        1 MOL      0.139980
     38 H18        11.8760   -6.4210    1.5800 hn        1 MOL      0.321023
     39 H19        13.4330   -7.1070    1.5520 hn        1 MOL      0.321023
     40 H20        13.1190   -5.8320    2.3650 hn        1 MOL      0.321023
     41 N4          7.2760   -2.5970   -1.1520 n         1 MOL     -0.293156
     42 C13         6.4470   -2.6490   -2.4150 c3        1 MOL      0.066629
     43 C14         5.7960   -1.2980   -2.8030 c         1 MOL      0.569829
     44 O6          5.1650   -1.2670   -3.8560 o         1 MOL     -0.558134
     45 C15         5.3840   -3.7870   -2.2740 c3        1 MOL     -0.323443
     46 C16         4.3160   -3.5050   -1.2260 c         1 MOL      0.715240
     47 O7          3.1010   -3.6790   -1.4910 o         1 MOL     -0.687665
     48 O8          4.5540   -3.1930   -0.0060 o         1 MOL     -0.687665
     49 H21         6.7540   -2.6060   -0.2810 hn        1 MOL      0.166716
     50 H22         7.1320   -2.8590   -3.2300 h1        1 MOL      0.107244
     51 H23         5.8430   -4.7030   -1.8960 hc        1 MOL      0.088839
     52 H24         4.9930   -3.9260   -3.2760 hc        1 MOL      0.088839
     53 N5          5.8740   -0.2390   -2.0480 n         1 MOL     -0.417114
     54 C17         5.2740    1.0130   -2.3890 c3        1 MOL     -0.000129
     55 C18         6.0650    1.9930   -3.2720 c         1 MOL      0.568134
     56 O9          6.9110    1.6460   -4.1120 o         1 MOL     -0.506249
     57 H25         6.4600   -0.2330   -1.2240 hn        1 MOL      0.273972
     58 H26         4.9420    1.5120   -1.4860 h1        1 MOL      0.089229
     59 H27         4.2950    0.8710   -2.8680 h1        1 MOL      0.089229
     60 N6          5.7150    3.2800   -3.2560 n         1 MOL     -0.603788
     61 C19         4.5180    3.9960   -2.7950 c3        1 MOL      0.344238
     62 C20         4.3030    4.0030   -1.2590 c         1 MOL      0.432196
     63 O10         5.2810    4.2590   -0.5450 o         1 MOL     -0.509983
     64 C21         4.5850    5.4330   -3.4250 c3        1 MOL     -0.499582
     65 C22         3.2880    6.2800   -3.1180 c         1 MOL      0.683824
     66 N7          3.3650    7.2890   -2.2860 n         1 MOL     -0.736675
     67 O11         2.2330    6.1250   -3.7180 o         1 MOL     -0.576756
     68 H28         6.3390    3.8110   -3.8450 hn        1 MOL      0.316230
     69 H29         3.6850    3.4510   -3.2480 h1        1 MOL      0.016864
     70 H30         4.6490    5.4140   -4.5190 hc        1 MOL      0.165593
     71 H31         5.4990    5.9260   -3.0630 hc        1 MOL      0.165593
     72 H32         4.2400    7.5700   -1.8660 hn        1 MOL      0.358996
     73 H33         2.5320    7.8560   -2.3210 hn        1 MOL      0.358996
     74 N8          3.1350    3.6010   -0.7280 n         1 MOL     -0.458642
     75 C23         1.8550    3.4480   -1.4360 c3        1 MOL     -0.147050
     76 C24         0.6830    3.4040   -0.4940 c         1 MOL      0.662374
     77 O12         0.7070    2.5670    0.4380 o         1 MOL     -0.578285
     78 H34         3.1810    3.2460    0.2110 hn        1 MOL      0.333668
     79 H35         1.8140    2.5400   -2.0470 h1        1 MOL      0.087879
     80 H36         1.8580    4.3250   -2.0870 h1        1 MOL      0.087879
     81 N9         -0.3440    4.2030   -0.7790 n         1 MOL     -0.538330
     82 C25        -1.5620    4.4110    0.0260 c3        1 MOL      0.176155
     83 C26        -2.5920    3.3200   -0.2020 c         1 MOL      0.485616
     84 O13        -2.5950    2.6260   -1.2230 o         1 MOL     -0.524892
     85 C27        -2.1890    5.8190   -0.2210 c3        1 MOL     -0.203995
     86 C28        -3.0990    6.3110    0.9110 ca        1 MOL      0.003779
     87 C29        -4.4470    6.3880    0.6990 ca        1 MOL     -0.075407
     88 C30        -2.6210    6.6810    2.1460 ca        1 MOL     -0.075407
     89 C31        -5.3250    6.8270    1.7150 ca        1 MOL     -0.337643
     90 C32        -3.4720    7.0520    3.2170 ca        1 MOL     -0.337643
     91 C33        -4.8570    7.1290    2.9690 ca        1 MOL      0.437653
     92 O14        -5.7490    7.5360    3.9330 oh        1 MOL     -0.537879
     93 H37        -0.3650    4.7130   -1.6530 hn        1 MOL      0.320530
     94 H38        -1.2850    4.3320    1.0820 h1        1 MOL      0.025770
     95 H39        -2.6780    5.8300   -1.1880 hc        1 MOL      0.102086
     96 H40        -1.4010    6.5780   -0.2400 hc        1 MOL      0.102086
     97 H41        -4.8340    6.1960   -0.2900 ha        1 MOL      0.110295
     98 H42        -1.5830    6.5930    2.4140 ha        1 MOL      0.110295
     99 H43        -6.3690    7.0100    1.4930 ha        1 MOL      0.163534
    100 H44        -3.0700    7.3010    4.1820 ha        1 MOL      0.163534
    101 H45        -5.4120    7.6620    4.8150 ho        1 MOL      0.389118
    102 N10        -3.5310    3.2650    0.7970 n         1 MOL     -0.332119
    103 C34        -4.6730    2.4280    0.9850 c3        1 MOL      0.078520
    104 C35        -5.9490    2.7860    0.1610 c         1 MOL      0.406471
    105 O15        -6.1540    3.8720   -0.3910 o         1 MOL     -0.473187
    106 C36        -5.0270    2.2460    2.4830 c3        1 MOL      0.089198
    107 C37        -3.9220    1.5020    3.3540 c3        1 MOL     -0.158366
    108 C38        -5.2980    3.6570    3.0760 c3        1 MOL     -0.113583
    109 C39        -3.6750    0.0050    2.8630 c3        1 MOL      0.239507
    110 H46        -3.3790    3.9620    1.5100 hn        1 MOL      0.229218
    111 H47        -4.3670    1.4360    0.6370 h1        1 MOL      0.055603
    112 H48        -5.9420    1.6650    2.5000 hc        1 MOL      0.019733
    113 H49        -4.1770    1.3720    4.3990 hc        1 MOL      0.025576
    114 H50        -2.9760    2.0430    3.2480 hc        1 MOL      0.025576
    115 H51        -5.7570    3.4160    4.0330 hc        1 MOL      0.031211
    116 H52        -4.3700    4.2220    3.1880 hc        1 MOL      0.031211
    117 H53        -6.1190    4.2020    2.6020 hc        1 MOL      0.031211
    118 H54        -3.1900   -0.0070    1.8890 hc        1 MOL     -0.072049
    119 H55        -3.1290   -0.6060    3.5730 hc        1 MOL     -0.072049
    120 H56        -4.6170   -0.4900    2.6310 hc        1 MOL     -0.072049
    121 N11        -6.7150    1.7500   -0.0580 n         1 MOL     -0.258351
    122 C40        -7.8590    1.5920   -0.9500 c3        1 MOL     -0.142507
    123 C41        -7.9730    0.1970   -1.5480 c         1 MOL      0.588596
    124 O16        -7.5270   -0.7810   -0.8810 o         1 MOL     -0.476528
    125 C42        -9.1810    2.0450   -0.3390 c3        1 MOL      0.021276
    126 O17        -9.5400    1.0290    0.5860 oh        1 MOL     -0.575042
    127 H57        -6.3280    0.8950    0.3190 hn        1 MOL      0.232678
    128 H58        -7.6610    2.1980   -1.8370 h1        1 MOL      0.092487
    129 H59       -10.0190    2.2440   -1.0010 h1        1 MOL      0.084101
    130 H60        -9.1230    3.0070    0.1620 h1        1 MOL      0.084101
    131 H61       -10.2640    1.3460    1.1310 ho        1 MOL      0.405897
    132 N12        -8.4210    0.1120   -2.8090 n         1 MOL     -0.423402
    133 C43        -8.4080   -1.0760   -3.6750 c3        1 MOL      0.027306
    134 C44        -9.0090   -2.3300   -3.0060 c         1 MOL      0.476704
    135 O18        -8.5350   -3.3570   -3.3790 o         1 MOL     -0.429611
    136 C45        -6.9850   -1.2180   -4.1850 c3        1 MOL     -0.249443
    137 H62        -8.8710    0.9380   -3.1790 hn        1 MOL      0.274953
    138 H63        -9.0820   -0.8180   -4.4920 h1        1 MOL      0.093944
    139 H64        -6.3440   -1.6030   -3.3910 hc        1 MOL      0.096993
    140 H65        -6.9350   -1.9290   -5.0180 hc        1 MOL      0.096993
    141 H66        -6.5620   -0.2860   -4.5410 hc        1 MOL      0.096993
    142 N13       -10.0540   -2.2220   -2.1640 n         1 MOL     -0.543700
    143 C46       -10.6880   -3.3830   -1.4950 c3        1 MOL      0.350317
    144 C47        -9.6820   -4.2620   -0.7700 c         1 MOL      0.425503
    145 O19        -9.8670   -5.4720   -0.8870 o         1 MOL     -0.478898
    146 C48       -11.7270   -4.1530   -2.3920 c3        1 MOL     -0.304922
    147 H67       -10.3910   -1.2920   -1.9350 hn        1 MOL      0.272279
    148 H68       -11.3330   -2.9810   -0.7070 h1        1 MOL      0.000641
    149 H69       -12.5600   -3.4870   -2.6020 hc        1 MOL      0.083436
    150 H70       -11.2720   -4.4300   -3.3500 hc        1 MOL      0.083436
    151 H71       -12.1210   -5.0370   -1.8910 hc        1 MOL      0.083436
    152 N14        -8.6180   -3.6940   -0.1650 n         1 MOL     -0.579034
    153 C49        -7.5210   -4.4820    0.4710 c3        1 MOL      0.101973
    154 C50        -7.8180   -4.9370    1.8540 c         1 MOL      0.512587
    155 O20        -7.8320   -6.1750    2.1270 o         1 MOL     -0.536604
    156 C51        -6.2580   -3.6840    0.2230 c3        1 MOL      0.663227
    157 C52        -5.1220   -4.3580    0.9780 c3        1 MOL     -0.619672
    158 C53        -3.6970   -3.7990    0.5960 c         1 MOL      0.933990
    159 O21        -3.5150   -2.7200   -0.0850 o         1 MOL     -0.771628
    160 O22        -2.6320   -4.3200    0.9810 o         1 MOL     -0.771628
    161 H72        -8.5440   -2.6940   -0.0320 hn        1 MOL      0.259724
    162 H73        -7.3080   -5.4170   -0.0620 h1        1 MOL      0.066304
    163 H74        -6.3700   -2.6210    0.4340 hc        1 MOL     -0.127250
    164 H75        -6.0830   -3.6740   -0.8530 hc        1 MOL     -0.127250
    165 H76        -5.1890   -5.4410    0.9460 hc        1 MOL      0.080241
    166 H77        -5.3130   -4.0580    2.0030 hc        1 MOL      0.080241
    167 N15        -8.1320   -4.0500    2.8290 n         1 MOL     -0.260196
    168 C54        -8.4550   -4.5040    4.1870 c3        1 MOL     -0.481063
    169 H78        -9.2090   -5.2900    4.1380 h1        1 MOL      0.177225
    170 H79        -7.5550   -4.8950    4.6640 h1        1 MOL      0.177225
    171 H80        -8.8400   -3.6670    4.7680 h1        1 MOL      0.177225
    172 H81        -8.1830   -3.0820    2.5490 hn        1 MOL      0.232004
    173 Ca1        -0.9040   -2.4810    0.6840 Ca        1 MOL      1.810657
    174 O23        -1.9010   -3.0870    3.3910 oh        1 MOL     -0.863060
    175 O24         0.8130   -2.4970    2.6970 oh        1 MOL     -0.863060
    176 H82        -1.5780   -3.5890    4.1340 ho        1 MOL      0.420417
    177 H83         0.6290   -2.8010    3.5840 ho        1 MOL      0.420417
    178 H84        -2.4060   -3.7100    2.8790 ho        1 MOL      0.420417
    179 H85         1.7640   -2.4830    2.6390 ho        1 MOL      0.420417
    180 O25        -1.7100   -0.7370   -1.2070 oh        1 MOL     -0.863060
    181 H86        -1.6300   -0.8260   -2.1590 ho        1 MOL      0.420417
    182 H87        -2.0250    0.1660   -1.0850 ho        1 MOL      0.420417
    183 O26        -0.5940   -3.4140   -1.7730 oh        1 MOL     -0.863060
    184 H88        -0.8660   -4.1780   -2.2690 ho        1 MOL      0.420417
    185 H89         0.0200   -2.9520   -2.3430 ho        1 MOL      0.420417
    186 O27         0.2360   -5.0060    0.9850 oh        1 MOL     -0.863060
    187 H90        -0.0790   -5.9070    0.8860 ho        1 MOL      0.420417
    188 H91         1.1670   -5.0530    0.7980 ho        1 MOL      0.420417
    189 O28        -0.1120    0.0340    1.6440 oh        1 MOL     -0.863060
    190 H92         0.0240    0.9310    1.3460 ho        1 MOL      0.420417
    191 H93         0.3420   -0.0060    2.4890 ho        1 MOL      0.420417
    192 O29         1.5180   -2.0510   -0.2810 oh        1 MOL     -0.863060
    193 H94         2.2180   -2.6180   -0.6080 ho        1 MOL      0.420417
    194 H95         1.9460   -1.2110   -0.1240 ho        1 MOL      0.420417
@<TRIPOS>BOND
     1    1    2 1   
     2    1    4 1   
     3    1    5 1   
     4    1    6 1   
     5    2    3 2   
     6    2    7 1   
     7    7    8 1   
     8    7   15 1   
     9    8    9 1   
    10    8   11 1   
    11    8   16 1   
    12    9   10 2   
    13    9   19 1   
    14   11   12 1   
    15   11   17 1   
    16   11   18 1   
    17   12   13 1   
    18   12   14 1   
    19   19   20 1   
    20   19   28 1   
    21   20   21 1   
    22   20   23 1   
    23   20   29 1   
    24   21   22 2   
    25   21   41 1   
    26   23   24 1   
    27   23   30 1   
    28   23   31 1   
    29   24   25 1   
    30   24   32 1   
    31   24   33 1   
    32   25   26 1   
    33   25   34 1   
    34   25   35 1   
    35   26   27 1   
    36   26   36 1   
    37   26   37 1   
    38   27   38 1   
    39   27   39 1   
    40   27   40 1   
    41   41   42 1   
    42   41   49 1   
    43   42   43 1   
    44   42   45 1   
    45   42   50 1   
    46   43   44 2   
    47   43   53 1   
    48   45   46 1   
    49   45   51 1   
    50   45   52 1   
    51   46   47 1   
    52   46   48 1   
    53   53   54 1   
    54   53   57 1   
    55   54   55 1   
    56   54   58 1   
    57   54   59 1   
    58   55   56 2   
    59   55   60 1   
    60   60   61 1   
    61   60   68 1   
    62   61   62 1   
    63   61   64 1   
    64   61   69 1   
    65   62   63 2   
    66   62   74 1   
    67   64   65 1   
    68   64   70 1   
    69   64   71 1   
    70   65   66 1   
    71   65   67 2   
    72   66   72 1   
    73   66   73 1   
    74   74   75 1   
    75   74   78 1   
    76   75   76 1   
    77   75   79 1   
    78   75   80 1   
    79   76   77 2   
    80   76   81 1   
    81   81   82 1   
    82   81   93 1   
    83   82   83 1   
    84   82   85 1   
    85   82   94 1   
    86   83   84 2   
    87   83  102 1   
    88   85   86 1   
    89   85   95 1   
    90   85   96 1   
    91   86   87 ar  
    92   86   88 ar  
    93   87   89 ar  
    94   87   97 1   
    95   88   90 ar  
    96   88   98 1   
    97   89   91 ar  
    98   89   99 1   
    99   90   91 ar  
   100   90  100 1   
   101   91   92 1   
   102   92  101 1   
   103  102  103 1   
   104  102  110 1   
   105  103  104 1   
   106  103  106 1   
   107  103  111 1   
   108  104  105 2   
   109  104  121 1   
   110  106  107 1   
   111  106  108 1   
   112  106  112 1   
   113  107  109 1   
   114  107  113 1   
   115  107  114 1   
   116  108  115 1   
   117  108  116 1   
   118  108  117 1   
   119  109  118 1   
   120  109  119 1   
   121  109  120 1   
   122  121  122 1   
   123  121  127 1   
   124  122  123 1   
   125  122  125 1   
   126  122  128 1   
   127  123  124 2   
   128  123  132 1   
   129  125  126 1   
   130  125  129 1   
   131  125  130 1   
   132  126  131 1   
   133  132  133 1   
   134  132  137 1   
   135  133  134 1   
   136  133  136 1   
   137  133  138 1   
   138  134  135 2   
   139  134  142 1   
   140  136  139 1   
   141  136  140 1   
   142  136  141 1   
   143  142  143 1   
   144  142  147 1   
   145  143  144 1   
   146  143  146 1   
   147  143  148 1   
   148  144  145 2   
   149  144  152 1   
   150  146  149 1   
   151  146  150 1   
   152  146  151 1   
   153  152  153 1   
   154  152  161 1   
   155  153  154 1   
   156  153  156 1   
   157  153  162 1   
   158  154  155 2   
   159  154  167 1   
   160  156  157 1   
   161  156  163 1   
   162  156  164 1   
   163  157  158 1   
   164  157  165 1   
   165  157  166 1   
   166  158  159 1   
   167  158  160 1   
   168  167  168 1   
   169  167  172 1   
   170  168  169 1   
   171  168  170 1   
   172  168  171 1   
   173  174  176 1   
   174  174  178 1   
   175  175  177 1   
   176  175  179 1   
   177  180  181 1   
   178  180  182 1   
   179  183  184 1   
   180  183  185 1   
   181  186  187 1   
   182  186  188 1   
   183  189  190 1   
   184  189  191 1   
   185  192  193 1   
   186  192  194 1   
@<TRIPOS>SUBSTRUCTURE
     1 MOL         1 TEMP              0 ****  ****    0 ROOT
