@<TRIPOS>MOLECULE
MOL
  192   187     1     0     0
SMALL
resp


@<TRIPOS>ATOM
      1 C1         -4.5980   -1.9070    2.9840 c3        1 MOL     -0.405737
      2 C2         -3.8950   -2.4140    1.7340 c         1 MOL      0.533088
      3 O1         -3.2410   -1.7130    1.0340 o         1 MOL     -0.427826
      4 H1         -5.2950   -1.1140    2.7120 hc        1 MOL      0.105938
      5 H2         -5.1450   -2.7260    3.4510 hc        1 MOL      0.105938
      6 H3         -3.8600   -1.5160    3.6830 hc        1 MOL      0.105938
      7 N1         -4.1340   -3.6600    1.3180 n         1 MOL     -0.666873
      8 C3         -3.3810   -4.3320    0.2060 c3        1 MOL      0.141824
      9 C4         -1.8410   -4.2770    0.3080 c         1 MOL      0.756212
     10 O2         -1.1840   -4.4130   -0.7430 o         1 MOL     -0.528530
     11 C5         -3.8790   -3.9520   -1.2080 c3        1 MOL     -0.340245
     12 C6         -5.4260   -3.7580   -1.2300 c         1 MOL      1.087899
     13 O3         -5.8650   -2.6820   -1.7030 o         1 MOL     -0.902055
     14 O4         -6.1910   -4.6790   -0.9220 o         1 MOL     -0.902055
     15 H4         -4.6930   -4.2370    1.9350 hn        1 MOL      0.317296
     16 H5         -3.6580   -5.3780    0.2970 h1        1 MOL      0.073557
     17 H6         -3.6940   -4.7570   -1.9210 hc        1 MOL      0.070779
     18 H7         -3.4440   -3.0000   -1.5160 hc        1 MOL      0.070779
     19 N2         -1.2310   -4.2260    1.4930 n         1 MOL     -0.853391
     20 C7          0.2620   -4.3400    1.7080 c3        1 MOL     -0.065252
     21 C8          0.9040   -5.5750    0.9440 c         1 MOL      0.534423
     22 O5          0.2220   -6.5340    0.7140 o         1 MOL     -0.552720
     23 C9          0.6390   -4.4960    3.1960 c3        1 MOL      0.229232
     24 C10        -0.1130   -5.6730    3.9090 c3        1 MOL      0.100183
     25 C11         0.4660   -3.1710    3.9100 c3        1 MOL     -0.313735
     26 C12         0.3890   -5.9500    5.3020 c3        1 MOL     -0.092080
     27 H8         -1.8110   -4.0780    2.3090 hn        1 MOL      0.446171
     28 H9          0.7450   -3.4480    1.3030 h1        1 MOL      0.097062
     29 H10         1.7250   -4.6200    3.1880 hc        1 MOL      0.021759
     30 H11         0.0530   -6.5780    3.3280 hc        1 MOL     -0.024981
     31 H12        -1.1580   -5.3590    3.9470 hc        1 MOL     -0.024981
     32 H13         0.6670   -3.2950    4.9820 hc        1 MOL      0.072080
     33 H14         1.0950   -2.4380    3.4190 hc        1 MOL      0.072080
     34 H15        -0.5660   -2.8410    3.8950 hc        1 MOL      0.072080
     35 H16        -0.0110   -6.8810    5.7160 hc        1 MOL      0.007819
     36 H17         1.4770   -6.0100    5.3970 hc        1 MOL      0.007819
     37 H18         0.1650   -5.1410    5.9910 hc        1 MOL      0.007819
     38 N3          2.1230   -5.5310    0.4130 n         1 MOL     -0.368518
     39 C13         3.2260   -4.6190    0.6610 c3        1 MOL     -0.112540
     40 C14         3.6190   -3.6860   -0.5150 c         1 MOL      0.587698
     41 O6          4.4300   -2.7880   -0.3000 o         1 MOL     -0.517557
     42 C15         4.3810   -5.4520    1.1490 c3        1 MOL     -0.102712
     43 C16         5.0550   -6.3700    0.1630 c         1 MOL      0.796929
     44 O7          4.2990   -7.1350   -0.3850 o         1 MOL     -0.734608
     45 O8          6.2780   -6.4370    0.0480 o         1 MOL     -0.734608
     46 H19         2.3060   -6.3160   -0.1960 hn        1 MOL      0.268543
     47 H20         2.8760   -3.9730    1.4590 h1        1 MOL      0.074523
     48 H21         3.9690   -6.1170    1.9000 hc        1 MOL      0.004910
     49 H22         5.1020   -4.7670    1.6110 hc        1 MOL      0.004910
     50 N4          3.0080   -3.8050   -1.7360 n         1 MOL     -0.410966
     51 C17         3.3280   -2.8910   -2.8840 c3        1 MOL     -0.339381
     52 C18         4.8250   -2.9180   -3.1600 c         1 MOL      0.650122
     53 O9          5.5060   -3.9140   -3.2850 o         1 MOL     -0.517795
     54 H23         2.1550   -4.3280   -1.8560 hn        1 MOL      0.323507
     55 H24         2.9580   -1.8950   -2.6320 h1        1 MOL      0.154969
     56 H25         2.8220   -3.2840   -3.7720 h1        1 MOL      0.154969
     57 N5          5.3480   -1.6610   -3.2530 n         1 MOL     -0.580818
     58 C19         6.7960   -1.3110   -3.5110 c3        1 MOL      0.198475
     59 C20         7.6020   -1.1680   -2.1560 c         1 MOL      0.355757
     60 O10         8.7920   -1.0230   -2.1550 o         1 MOL     -0.521677
     61 C21         6.8570    0.0470   -4.2260 c3        1 MOL     -0.168909
     62 C22         5.8880    1.1160   -3.7350 c         1 MOL      0.681641
     63 O11         6.0420    1.4650   -2.5390 o         1 MOL     -0.678835
     64 O12         4.8420    1.3030   -4.3520 o         1 MOL     -0.678835
     65 H26         4.8140   -0.8830   -2.8970 hn        1 MOL      0.342053
     66 H27         7.2570   -2.0380   -4.1680 h1        1 MOL      0.058145
     67 H28         6.6360    0.0020   -5.2940 hc        1 MOL     -0.005995
     68 H29         7.8620    0.4410   -4.0680 hc        1 MOL     -0.005995
     69 N6          6.8760   -1.4380   -1.0250 n         1 MOL     -0.064623
     70 C23         7.5540   -1.4500    0.2570 c3        1 MOL     -0.275149
     71 C24         7.8530   -0.0280    0.7950 c         1 MOL      0.467885
     72 O13         8.3330    0.0610    1.9050 o         1 MOL     -0.558732
     73 H30         5.9710   -1.8620   -1.0910 hn        1 MOL      0.186611
     74 H31         8.4540   -2.0530    0.0940 h1        1 MOL      0.130031
     75 H32         6.9890   -2.0920    0.9210 h1        1 MOL      0.130031
     76 N7          7.5560    1.0160   -0.0080 n         1 MOL     -0.100265
     77 C25         7.6950    2.4670    0.2530 c3        1 MOL      0.156368
     78 C26         7.1670    2.9550    1.6110 c         1 MOL      0.378018
     79 O14         7.7060    3.9060    2.1600 o         1 MOL     -0.514492
     80 C27         9.0530    2.9890   -0.2350 c3        1 MOL     -0.088168
     81 C28         9.5160    2.4530   -1.6170 c3        1 MOL     -0.011804
     82 C29        10.8340    3.0540   -2.0910 c         1 MOL      0.558922
     83 N8         11.6730    2.3670   -2.8510 n         1 MOL     -0.737839
     84 O15        11.2140    4.1740   -1.7230 o         1 MOL     -0.570246
     85 H33         7.1600    0.8150   -0.9170 hn        1 MOL     -0.032902
     86 H34         6.9770    2.8020   -0.4930 h1        1 MOL      0.052974
     87 H35         9.8250    2.8330    0.5110 hc        1 MOL      0.025497
     88 H36         8.9180    4.0680   -0.3620 hc        1 MOL      0.025497
     89 H37         8.7550    2.7060   -2.3540 hc        1 MOL      0.043583
     90 H38         9.5400    1.3680   -1.6350 hc        1 MOL      0.043583
     91 H39        11.3980    1.4580   -3.1900 hn        1 MOL      0.335354
     92 H40        12.4590    2.8530   -3.2540 hn        1 MOL      0.335354
     93 N9          6.0440    2.4060    2.0380 n         1 MOL     -0.162847
     94 C30         5.2010    2.9060    3.1590 c3        1 MOL     -0.398783
     95 C31         3.6790    2.9530    3.0610 c         1 MOL      0.634296
     96 O16         2.9900    3.3460    3.9680 o         1 MOL     -0.541537
     97 C32         5.5320    2.1460    4.4900 c3        1 MOL      0.457116
     98 C33         5.1380    0.6280    4.4930 c3        1 MOL     -0.457556
     99 C34         7.0100    2.1350    4.8990 c3        1 MOL     -0.457556
    100 H41         5.6980    1.6970    1.4140 hn        1 MOL      0.209022
    101 H42         5.6110    3.9200    3.2210 h1        1 MOL      0.170699
    102 H43         5.0760    2.6590    5.3420 hc        1 MOL     -0.054789
    103 H44         5.5470    0.1990    3.5780 hc        1 MOL      0.107952
    104 H45         5.4670    0.0450    5.3520 hc        1 MOL      0.107952
    105 H46         4.0510    0.7110    4.4420 hc        1 MOL      0.107952
    106 H47         7.6160    1.5510    4.2020 hc        1 MOL      0.107952
    107 H48         7.3300    3.1630    4.7600 hc        1 MOL      0.107952
    108 H49         7.1030    1.7820    5.9200 hc        1 MOL      0.107952
    109 N10         3.1200    2.4750    1.8890 n         1 MOL     -0.556290
    110 C35         1.7250    2.3370    1.6470 c3        1 MOL      0.447514
    111 C36         1.1530    3.0590    0.3780 c         1 MOL      0.379566
    112 O17         2.0290    3.4980   -0.4650 o         1 MOL     -0.527178
    113 C37         1.4340    0.8490    1.8220 c3        1 MOL     -0.139846
    114 C38        -0.0320    0.4400    1.9740 c         1 MOL      0.464648
    115 N11        -0.4510   -0.5470    1.2320 n         1 MOL     -0.513938
    116 O18        -0.8460    1.1800    2.5280 o         1 MOL     -0.544146
    117 H50         3.8050    2.3100    1.1640 hn        1 MOL      0.267204
    118 H51         1.1200    2.8590    2.3870 h1        1 MOL     -0.008475
    119 H52         1.9080    0.4540    2.7230 hc        1 MOL      0.025514
    120 H53         1.8790    0.2690    1.0080 hc        1 MOL      0.025514
    121 H54         0.1090   -1.0060    0.5310 hn        1 MOL      0.299250
    122 H55        -1.4510   -0.6130    1.1060 hn        1 MOL      0.299250
    123 N12        -0.1540    3.1240    0.1740 n         1 MOL     -0.378241
    124 C39        -0.7970    3.9450   -0.9160 c3        1 MOL      0.018537
    125 C40        -2.2080    4.2670   -0.4820 c         1 MOL      0.640319
    126 O19        -2.6080    3.8410    0.6250 o         1 MOL     -0.552819
    127 C41        -0.8700    3.0210   -2.1190 c3        1 MOL     -0.186152
    128 C42        -2.1070    2.1180   -2.3620 ca        1 MOL     -0.053319
    129 C43        -2.3190    0.9180   -1.6610 ca        1 MOL     -0.062331
    130 C44        -3.1450    2.5660   -3.2250 ca        1 MOL     -0.062331
    131 C45        -3.3830    0.1010   -1.9390 ca        1 MOL     -0.286826
    132 C46        -4.2270    1.6910   -3.6100 ca        1 MOL     -0.286826
    133 C47        -4.3130    0.4650   -2.8990 ca        1 MOL      0.359109
    134 O20        -5.3260   -0.4330   -3.2190 oh        1 MOL     -0.698768
    135 H56        -0.7710    2.7380    0.8650 hn        1 MOL      0.271079
    136 H57        -0.1870    4.8230   -1.1160 h1        1 MOL      0.101541
    137 H58         0.0170    2.3880   -2.2640 hc        1 MOL      0.094623
    138 H59        -0.7940    3.6750   -2.9830 hc        1 MOL      0.094623
    139 H60        -1.6100    0.5520   -0.9340 ha        1 MOL      0.077024
    140 H61        -3.0130    3.5490   -3.6390 ha        1 MOL      0.077024
    141 H62        -3.4130   -0.8640   -1.4550 ha        1 MOL      0.167481
    142 H63        -4.9240    1.8740   -4.4190 ha        1 MOL      0.167481
    143 H64        -5.4110   -1.1890   -2.6410 ho        1 MOL      0.618190
    144 N13        -2.9560    5.1070   -1.2280 n         1 MOL     -0.551616
    145 C48        -4.2650    5.5370   -0.8350 c3        1 MOL      0.214109
    146 C49        -5.3570    4.9050   -1.8110 c         1 MOL      0.575846
    147 O21        -5.6190    5.4430   -2.9030 o         1 MOL     -0.602031
    148 C50        -4.3840    7.0140   -0.7390 c3        1 MOL     -0.190438
    149 C51        -4.0900    7.4220    0.7010 c3        1 MOL     -0.093862
    150 C52        -4.1920    8.8760    0.8780 c         1 MOL      0.679676
    151 O22        -3.6800    9.6640    0.0540 o         1 MOL     -0.679692
    152 O23        -4.6770    9.3920    1.9740 o         1 MOL     -0.679692
    153 H65        -2.5780    5.5310   -2.0600 hn        1 MOL      0.322351
    154 H66        -4.4460    5.1600    0.1760 h1        1 MOL      0.011584
    155 H67        -5.4170    7.3190   -0.8910 hc        1 MOL      0.063829
    156 H68        -3.7040    7.4510   -1.4740 hc        1 MOL      0.063829
    157 H69        -3.1300    7.0550    1.0740 hc        1 MOL      0.033878
    158 H70        -4.8500    6.9590    1.3310 hc        1 MOL      0.033878
    159 N14        -6.0370    3.8700   -1.4400 n         1 MOL     -0.489463
    160 C53        -5.9110    3.2170   -0.1280 c3        1 MOL      0.172104
    161 C54        -6.5170    3.8990    1.0630 c         1 MOL      0.366243
    162 O24        -7.2480    4.8890    0.8390 o         1 MOL     -0.496297
    163 C55        -6.6030    1.8580   -0.4130 c3        1 MOL      0.025323
    164 C56        -6.2080    0.6750    0.4340 c3        1 MOL     -0.116026
    165 C57        -7.1580   -0.5860    0.2940 c         1 MOL      0.631364
    166 O25        -7.0320   -1.6380    0.9750 o         1 MOL     -0.731303
    167 O26        -7.9850   -0.5770   -0.6550 o         1 MOL     -0.731303
    168 H71        -6.3150    3.2680   -2.2110 hn        1 MOL      0.276554
    169 H72        -4.8740    3.0710    0.1870 h1        1 MOL      0.018721
    170 H73        -6.3590    1.6040   -1.4470 hc        1 MOL      0.017314
    171 H74        -7.6180    2.1230   -0.1540 hc        1 MOL      0.017314
    172 H75        -6.3370    0.8970    1.4950 hc        1 MOL      0.043379
    173 H76        -5.1980    0.3520    0.1870 hc        1 MOL      0.043379
    174 N15        -6.2670    3.4990    2.3390 n         1 MOL     -0.220899
    175 C58        -6.8080    3.9700    3.6580 c3        1 MOL     -0.151537
    176 H77        -7.5790    4.7220    3.4870 h1        1 MOL      0.084523
    177 H78        -7.2370    3.1250    4.1970 h1        1 MOL      0.084523
    178 H79        -6.0010    4.4050    4.2470 h1        1 MOL      0.084523
    179 H80        -5.7100    2.6650    2.3220 hn        1 MOL      0.204450
    180 Ca1        -8.2840   -3.1830   -0.5730 Ca        1 MOL      1.715387
    181 O27        -9.8520   -5.4690   -0.7870 oh        1 MOL     -0.819731
    182 H81       -10.6780   -5.8640   -1.0670 ho        1 MOL      0.389377
    183 H82        -9.3820   -6.1810   -0.3640 ho        1 MOL      0.389377
    184 O28       -10.4270   -2.5220    1.0060 oh        1 MOL     -0.819731
    185 H83       -10.1770   -2.0930    1.8320 ho        1 MOL      0.389377
    186 H84       -11.0210   -1.9070    0.5890 ho        1 MOL      0.389377
    187 O29        -8.0820   -4.0420   -2.9880 oh        1 MOL     -0.819731
    188 H85        -7.2310   -4.4810   -2.9470 ho        1 MOL      0.389377
    189 H86        -8.5780   -4.5360   -3.6460 ho        1 MOL      0.389377
    190 O30       -10.2480   -2.3250   -2.0540 oh        1 MOL     -0.819731
    191 H87       -11.1820   -2.5220   -2.1190 ho        1 MOL      0.389377
    192 H88        -9.9980   -2.0700   -2.9480 ho        1 MOL      0.389377
@<TRIPOS>BOND
     1    1    2 1   
     2    1    4 1   
     3    1    5 1   
     4    1    6 1   
     5    2    3 2   
     6    2    7 1   
     7    7    8 1   
     8    7   15 1   
     9    8    9 1   
    10    8   11 1   
    11    8   16 1   
    12    9   10 2   
    13    9   19 1   
    14   11   12 1   
    15   11   17 1   
    16   11   18 1   
    17   12   13 1   
    18   12   14 1   
    19   19   20 1   
    20   19   27 1   
    21   20   21 1   
    22   20   23 1   
    23   20   28 1   
    24   21   22 2   
    25   21   38 1   
    26   23   24 1   
    27   23   25 1   
    28   23   29 1   
    29   24   26 1   
    30   24   30 1   
    31   24   31 1   
    32   25   32 1   
    33   25   33 1   
    34   25   34 1   
    35   26   35 1   
    36   26   36 1   
    37   26   37 1   
    38   38   39 1   
    39   38   46 1   
    40   39   40 1   
    41   39   42 1   
    42   39   47 1   
    43   40   41 2   
    44   40   50 1   
    45   42   43 1   
    46   42   48 1   
    47   42   49 1   
    48   43   44 1   
    49   43   45 1   
    50   50   51 1   
    51   50   54 1   
    52   51   52 1   
    53   51   55 1   
    54   51   56 1   
    55   52   53 2   
    56   52   57 1   
    57   57   58 1   
    58   57   65 1   
    59   58   59 1   
    60   58   61 1   
    61   58   66 1   
    62   59   60 2   
    63   59   69 1   
    64   61   62 1   
    65   61   67 1   
    66   61   68 1   
    67   62   63 1   
    68   62   64 1   
    69   69   70 1   
    70   69   73 1   
    71   70   71 1   
    72   70   74 1   
    73   70   75 1   
    74   71   72 2   
    75   71   76 1   
    76   76   77 1   
    77   76   85 1   
    78   77   78 1   
    79   77   80 1   
    80   77   86 1   
    81   78   79 2   
    82   78   93 1   
    83   80   81 1   
    84   80   87 1   
    85   80   88 1   
    86   81   82 1   
    87   81   89 1   
    88   81   90 1   
    89   82   83 1   
    90   82   84 2   
    91   83   91 1   
    92   83   92 1   
    93   93   94 1   
    94   93  100 1   
    95   94   95 1   
    96   94   97 1   
    97   94  101 1   
    98   95   96 2   
    99   95  109 1   
   100   97   98 1   
   101   97   99 1   
   102   97  102 1   
   103   98  103 1   
   104   98  104 1   
   105   98  105 1   
   106   99  106 1   
   107   99  107 1   
   108   99  108 1   
   109  109  110 1   
   110  109  117 1   
   111  110  111 1   
   112  110  113 1   
   113  110  118 1   
   114  111  112 2   
   115  111  123 1   
   116  113  114 1   
   117  113  119 1   
   118  113  120 1   
   119  114  115 1   
   120  114  116 2   
   121  115  121 1   
   122  115  122 1   
   123  123  124 1   
   124  123  135 1   
   125  124  125 1   
   126  124  127 1   
   127  124  136 1   
   128  125  126 2   
   129  125  144 1   
   130  127  128 1   
   131  127  137 1   
   132  127  138 1   
   133  128  129 ar  
   134  128  130 ar  
   135  129  131 ar  
   136  129  139 1   
   137  130  132 ar  
   138  130  140 1   
   139  131  133 ar  
   140  131  141 1   
   141  132  133 ar  
   142  132  142 1   
   143  133  134 1   
   144  134  143 1   
   145  144  145 1   
   146  144  153 1   
   147  145  146 1   
   148  145  148 1   
   149  145  154 1   
   150  146  147 2   
   151  146  159 1   
   152  148  149 1   
   153  148  155 1   
   154  148  156 1   
   155  149  150 1   
   156  149  157 1   
   157  149  158 1   
   158  150  151 1   
   159  150  152 1   
   160  159  160 1   
   161  159  168 1   
   162  160  161 1   
   163  160  163 1   
   164  160  169 1   
   165  161  162 2   
   166  161  174 1   
   167  163  164 1   
   168  163  170 1   
   169  163  171 1   
   170  164  165 1   
   171  164  172 1   
   172  164  173 1   
   173  165  166 1   
   174  165  167 1   
   175  174  175 1   
   176  174  179 1   
   177  175  176 1   
   178  175  177 1   
   179  175  178 1   
   180  181  182 1   
   181  181  183 1   
   182  184  185 1   
   183  184  186 1   
   184  187  188 1   
   185  187  189 1   
   186  190  191 1   
   187  190  192 1   
@<TRIPOS>SUBSTRUCTURE
     1 MOL         1 TEMP              0 ****  ****    0 ROOT
