@<TRIPOS>MOLECULE
MOL
  185   180     1     0     0
SMALL
resp


@<TRIPOS>ATOM
      1 C1         -6.0750    1.2640   -3.6660 c3        1 MOL     -0.416478
      2 C2         -6.6260    1.3930   -2.1970 c         1 MOL      0.573866
      3 O1         -5.8060    1.2880   -1.2720 o         1 MOL     -0.439031
      4 H1         -6.7470    0.6360   -4.2510 hc        1 MOL      0.112458
      5 H2         -6.0160    2.2530   -4.1210 hc        1 MOL      0.112458
      6 H3         -5.0840    0.8130   -3.6440 hc        1 MOL      0.112458
      7 N1         -7.9520    1.5400   -2.0670 n         1 MOL     -0.509250
      8 C3         -8.7670    1.7600   -0.8830 c3        1 MOL      0.122215
      9 C4         -8.5180    0.7450    0.1470 c         1 MOL      0.572680
     10 O2         -8.6310    1.0200    1.3140 o         1 MOL     -0.530760
     11 C5         -8.6260    3.2780   -0.3760 c3        1 MOL     -0.310121
     12 C6         -8.4990    4.3020   -1.5820 c         1 MOL      0.772971
     13 O3         -7.7050    5.2730   -1.4050 o         1 MOL     -0.690683
     14 O4         -9.0950    4.1270   -2.6580 o         1 MOL     -0.690683
     15 H4         -8.4000    1.7740   -2.9430 hn        1 MOL      0.315347
     16 H5         -9.7760    1.7010   -1.2760 h1        1 MOL      0.056342
     17 H6         -7.6250    3.2620    0.0530 hc        1 MOL      0.084296
     18 H7         -9.4050    3.4410    0.3640 hc        1 MOL      0.084296
     19 N2         -8.2370   -0.5060   -0.1440 n         1 MOL     -0.605852
     20 C7         -8.0410   -1.6730    0.7640 c3        1 MOL      0.390262
     21 C8         -6.5820   -2.2680    0.6030 c         1 MOL      0.568672
     22 O5         -6.4430   -3.4850    0.7740 o         1 MOL     -0.642719
     23 C9         -9.1710   -2.7310    0.3680 c3        1 MOL     -0.235793
     24 C10        -9.2600   -3.8110    1.4220 c3        1 MOL      0.067950
     25 C11        -9.8520   -5.0950    0.8840 c3        1 MOL     -0.062305
     26 C12        -8.7500   -5.9140    0.2470 c3        1 MOL      0.103550
     27 N3         -9.2480   -7.0860   -0.5000 n4        1 MOL     -0.438476
     28 H8         -8.3110   -0.6710   -1.1370 hn        1 MOL      0.207146
     29 H9         -8.1370   -1.3850    1.8110 h1        1 MOL      0.008715
     30 H10        -8.9400   -3.1720   -0.5920 hc        1 MOL      0.071011
     31 H11       -10.1270   -2.2120    0.4130 hc        1 MOL      0.071011
     32 H12       -10.0010   -3.5000    2.1600 hc        1 MOL      0.030228
     33 H13        -8.3300   -3.9360    1.9800 hc        1 MOL      0.030228
     34 H14       -10.5930   -4.8200    0.1300 hc        1 MOL      0.027124
     35 H15       -10.2800   -5.6330    1.7380 hc        1 MOL      0.027124
     36 H16        -8.2680   -6.3060    1.1480 hx        1 MOL      0.079829
     37 H17        -8.0700   -5.3160   -0.3590 hx        1 MOL      0.079829
     38 H18        -9.5480   -7.8070    0.1380 hn        1 MOL      0.340341
     39 H19       -10.0140   -7.0060   -1.1480 hn        1 MOL      0.340341
     40 H20        -8.4780   -7.4030   -1.0630 hn        1 MOL      0.340341
     41 N4         -5.5620   -1.4950    0.3560 n         1 MOL     -0.318198
     42 C13        -4.2140   -1.9230    0.1350 c3        1 MOL     -0.373010
     43 C14        -3.5890   -2.5070    1.3790 c         1 MOL      0.581480
     44 O6         -3.8570   -1.9960    2.4650 o         1 MOL     -0.488727
     45 C15        -3.4440   -0.7340   -0.2580 c3        1 MOL     -0.021502
     46 C16        -1.9070   -0.8720   -0.3710 c         1 MOL      0.611471
     47 O7         -0.9860   -0.5370    0.3970 o         1 MOL     -0.749504
     48 O8         -1.5650   -1.2570   -1.5300 o         1 MOL     -0.749504
     49 H21        -5.7360   -0.5220    0.1270 hn        1 MOL      0.227036
     50 H22        -4.2400   -2.6030   -0.7130 h1        1 MOL      0.147038
     51 H23        -3.6700    0.1020    0.4080 hc        1 MOL      0.124027
     52 H24        -3.7480   -0.3190   -1.2220 hc        1 MOL      0.124027
     53 N5         -2.8350   -3.5980    1.3310 n         1 MOL     -0.152923
     54 C17        -2.2290   -4.3780    2.4200 c3        1 MOL     -0.432107
     55 C18        -1.1220   -3.7020    3.2460 c         1 MOL      0.686074
     56 O9         -0.6670   -4.2990    4.2630 o         1 MOL     -0.563403
     57 H25        -2.6110   -3.8230    0.3660 hn        1 MOL      0.165938
     58 H26        -1.7860   -5.2880    2.0170 h1        1 MOL      0.173075
     59 H27        -3.0630   -4.5280    3.1030 h1        1 MOL      0.173075
     60 N6         -0.7340   -2.4420    2.9180 n         1 MOL     -0.540492
     61 C19        -0.0420   -1.4950    3.8710 c3        1 MOL      0.021486
     62 C20        -0.5520   -0.0020    3.6840 c         1 MOL      0.388018
     63 O10         0.1140    0.9350    4.0690 o         1 MOL     -0.512473
     64 C21         1.4890   -1.5840    3.6670 c3        1 MOL     -0.296575
     65 C22         1.9560   -1.0930    2.3000 c         1 MOL      0.713659
     66 N7          2.8230   -0.1120    2.3060 n         1 MOL     -0.743987
     67 O11         1.7770   -1.6710    1.2470 o         1 MOL     -0.669702
     68 H28        -0.9740   -2.0300    2.0310 hn        1 MOL      0.476043
     69 H29        -0.2630   -1.7230    4.9130 h1        1 MOL      0.125865
     70 H30         1.8740   -2.5860    3.8670 hc        1 MOL      0.118543
     71 H31         1.9550   -0.9700    4.4460 hc        1 MOL      0.118543
     72 H32         2.9390    0.4410    3.1500 hn        1 MOL      0.350495
     73 H33         3.0580    0.2540    1.3940 hn        1 MOL      0.350495
     74 N8         -1.7360    0.2570    3.0980 n         1 MOL     -0.036904
     75 C23        -2.3220    1.5450    3.0080 c3        1 MOL     -0.222322
     76 C24        -1.7320    2.6070    2.0280 c         1 MOL      0.512970
     77 O12        -1.8590    3.8370    2.2490 o         1 MOL     -0.538505
     78 H34        -2.3530   -0.5140    2.8940 hn        1 MOL      0.044578
     79 H35        -2.2670    1.9740    4.0080 h1        1 MOL      0.114894
     80 H36        -3.4030    1.5150    2.8330 h1        1 MOL      0.114894
     81 N9         -1.0160    2.1350    1.0100 n         1 MOL     -0.374123
     82 C25        -0.2160    2.9470    0.1270 c3        1 MOL      0.300864
     83 C26         1.1610    2.2700   -0.1340 c         1 MOL      0.209742
     84 O13         1.2710    1.0960   -0.3660 o         1 MOL     -0.361237
     85 C27        -1.0320    3.0820   -1.1790 c3        1 MOL     -0.310493
     86 C28        -2.2150    4.0880   -1.0830 ca        1 MOL      0.250428
     87 C29        -2.0740    5.4450   -1.4720 ca        1 MOL     -0.371627
     88 C30        -3.5140    3.5390   -0.9210 ca        1 MOL     -0.371627
     89 C31        -3.1890    6.2920   -1.5890 ca        1 MOL     -0.024977
     90 C32        -4.6160    4.4480   -1.0170 ca        1 MOL     -0.024977
     91 C33        -4.4430    5.8260   -1.4210 ca        1 MOL      0.183690
     92 O14        -5.5550    6.6470   -1.4540 oh        1 MOL     -0.535830
     93 H37        -1.0320    1.1260    0.9090 hn        1 MOL      0.235529
     94 H38         0.0050    3.9340    0.5270 h1        1 MOL      0.025419
     95 H39        -1.4420    2.0850   -1.3690 hc        1 MOL      0.082804
     96 H40        -0.4410    3.4260   -2.0270 hc        1 MOL      0.082804
     97 H41        -1.0930    5.8470   -1.6330 ha        1 MOL      0.135979
     98 H42        -3.7380    2.4890   -0.7880 ha        1 MOL      0.135979
     99 H43        -3.0680    7.3320   -1.8490 ha        1 MOL      0.087011
    100 H44        -5.6050    4.0110   -0.9500 ha        1 MOL      0.087011
    101 H45        -6.3620    6.1440   -1.3860 ho        1 MOL      0.419290
    102 N10         2.2320    3.0800   -0.2410 n         1 MOL     -0.358995
    103 C34         3.5620    2.6750   -0.6870 c3        1 MOL      0.425862
    104 C35         4.3460    2.1680    0.5610 c         1 MOL      0.094648
    105 O15         4.7790    1.0500    0.5660 o         1 MOL     -0.294127
    106 C36         4.2360    3.7920   -1.4650 c3        1 MOL     -0.006417
    107 C37         3.4120    4.1730   -2.7200 c3        1 MOL     -0.012160
    108 C38         5.6170    3.3170   -1.8790 c3        1 MOL     -0.421137
    109 C39         3.1200    3.0990   -3.7280 c3        1 MOL     -0.029292
    110 H46         2.1300    4.0380    0.0540 hn        1 MOL      0.245852
    111 H47         3.4230    1.8200   -1.3580 h1        1 MOL     -0.018289
    112 H48         4.1820    4.7320   -0.9150 hc        1 MOL     -0.007436
    113 H49         3.9530    4.9420   -3.2700 hc        1 MOL      0.019921
    114 H50         2.4560    4.5370   -2.3700 hc        1 MOL      0.019921
    115 H51         6.1000    4.0170   -2.5630 hc        1 MOL      0.124546
    116 H52         6.3450    3.0790   -1.1020 hc        1 MOL      0.124546
    117 H53         5.4860    2.3510   -2.3790 hc        1 MOL      0.124546
    118 H54         2.6780    2.2840   -3.1530 hc        1 MOL      0.010519
    119 H55         2.3200    3.4820   -4.3640 hc        1 MOL      0.010519
    120 H56         3.9920    2.7880   -4.3060 hc        1 MOL      0.010519
    121 N11         4.6190    3.0680    1.5790 n         1 MOL     -0.268094
    122 C40         5.3090    2.7780    2.8260 c3        1 MOL      0.109372
    123 C41         6.7570    2.1590    2.7090 c         1 MOL      0.170468
    124 O16         7.2390    1.3100    3.4290 o         1 MOL     -0.418094
    125 C42         5.3790    4.0380    3.7910 c3        1 MOL      0.371940
    126 O17         4.1870    4.8160    3.8200 oh        1 MOL     -0.654138
    127 H57         4.3110    4.0200    1.4430 hn        1 MOL      0.217920
    128 H58         4.7090    2.1410    3.4690 h1        1 MOL      0.070643
    129 H59         6.1780    4.6520    3.3770 h1        1 MOL     -0.025760
    130 H60         5.7020    3.7890    4.7960 h1        1 MOL     -0.025760
    131 H61         4.3730    5.7410    3.9720 ho        1 MOL      0.423250
    132 N12         7.4290    2.5520    1.5890 n         1 MOL     -0.160789
    133 C43         8.7570    2.0330    1.0870 c3        1 MOL      0.194275
    134 C44         8.8090    0.4970    0.8790 c         1 MOL      0.467328
    135 O18         9.8810   -0.0890    0.7340 o         1 MOL     -0.560016
    136 C45         9.8320    2.6560    2.0030 c3        1 MOL     -0.400225
    137 H62         7.0080    3.2740    1.0160 hn        1 MOL      0.167157
    138 H63         8.8970    2.4310    0.0900 h1        1 MOL      0.039366
    139 H64        10.8170    2.3300    1.6660 hc        1 MOL      0.116016
    140 H65         9.8030    3.7380    1.8920 hc        1 MOL      0.116016
    141 H66         9.7580    2.2990    3.0310 hc        1 MOL      0.116016
    142 N13         7.6710   -0.0690    0.7910 n         1 MOL     -0.281991
    143 C46         7.4140   -1.4920    0.6900 c3        1 MOL      0.510100
    144 C47         6.9790   -1.9340   -0.7400 c         1 MOL      0.215568
    145 O19         6.5710   -1.1440   -1.6190 o         1 MOL     -0.437666
    146 C48         6.5340   -1.7760    1.9310 c3        1 MOL     -0.450762
    147 H67         6.8620    0.5330    0.8620 hn        1 MOL     -0.016402
    148 H68         8.3580   -2.0030    0.9030 h1        1 MOL     -0.033392
    149 H69         5.7380   -1.0330    1.9410 hc        1 MOL      0.127044
    150 H70         6.0760   -2.7600    1.8120 hc        1 MOL      0.127044
    151 H71         7.1250   -1.6570    2.8470 hc        1 MOL      0.127044
    152 N14         7.0240   -3.2860   -0.9340 n         1 MOL     -0.358676
    153 C49         6.8820   -3.9990   -2.2330 c3        1 MOL     -0.312679
    154 C50         7.5560   -3.4480   -3.5160 c         1 MOL      0.583254
    155 O20         7.1110   -3.7710   -4.5570 o         1 MOL     -0.502766
    156 C51         5.3820   -4.0990   -2.5090 c3        1 MOL      0.447603
    157 C52         4.5390   -4.7340   -1.4220 c3        1 MOL     -0.047269
    158 C53         3.0580   -4.5930   -1.8210 c         1 MOL      0.625224
    159 O21         2.5130   -3.5040   -1.6110 o         1 MOL     -0.685702
    160 O22         2.5130   -5.5740   -2.3030 o         1 MOL     -0.685702
    161 H72         7.3620   -3.9200   -0.2160 hn        1 MOL      0.287092
    162 H73         7.3240   -4.9980   -2.1930 h1        1 MOL      0.120471
    163 H74         5.1660   -4.7620   -3.3470 hc        1 MOL     -0.082718
    164 H75         4.9650   -3.1170   -2.7540 hc        1 MOL     -0.082718
    165 H76         4.6910   -4.0720   -0.5680 hc        1 MOL     -0.047640
    166 H77         4.8210   -5.7800   -1.2700 hc        1 MOL     -0.047640
    167 N15         8.5900   -2.6120   -3.2940 n         1 MOL     -0.356011
    168 C54         9.2830   -1.8640   -4.3630 c3        1 MOL     -0.140876
    169 H78         9.3260   -2.4770   -5.2630 h1        1 MOL      0.087248
    170 H79         8.7380   -0.9440   -4.5750 h1        1 MOL      0.087248
    171 H80        10.2950   -1.6210   -4.0400 h1        1 MOL      0.087248
    172 H81         8.9270   -2.3930   -2.3690 hn        1 MOL      0.270906
    173 Ca1         1.0190   -1.4730   -1.1860 Ca        1 MOL      1.787503
    174 O23         3.8180   -0.9280   -1.1970 oh        1 MOL     -0.885456
    175 H82         4.2740   -1.7400   -1.3990 ho        1 MOL      0.430615
    176 H83         4.5080   -0.3320   -0.8990 ho        1 MOL      0.430615
    177 O24         0.5290   -2.4820   -3.7650 oh        1 MOL     -0.885456
    178 H84         0.3420   -3.4140   -3.7480 ho        1 MOL      0.430615
    179 H85         0.2300   -2.1920   -4.6290 ho        1 MOL      0.430615
    180 O25        -0.2020   -3.7690   -0.3640 oh        1 MOL     -0.885456
    181 H86        -0.8050   -4.0980   -1.0300 ho        1 MOL      0.430615
    182 H87         0.2120   -4.5570    0.0020 ho        1 MOL      0.430615
    183 O26         0.8150    0.5150   -3.2510 oh        1 MOL     -0.885456
    184 H88         0.7240    1.4640   -3.3710 ho        1 MOL      0.430615
    185 H89         0.5870    0.1510   -4.1060 ho        1 MOL      0.430615
@<TRIPOS>BOND
     1    1    2 1   
     2    1    4 1   
     3    1    5 1   
     4    1    6 1   
     5    2    3 2   
     6    2    7 1   
     7    7    8 1   
     8    7   15 1   
     9    8    9 1   
    10    8   11 1   
    11    8   16 1   
    12    9   10 2   
    13    9   19 1   
    14   11   12 1   
    15   11   17 1   
    16   11   18 1   
    17   12   13 1   
    18   12   14 1   
    19   19   20 1   
    20   19   28 1   
    21   20   21 1   
    22   20   23 1   
    23   20   29 1   
    24   21   22 2   
    25   21   41 1   
    26   23   24 1   
    27   23   30 1   
    28   23   31 1   
    29   24   25 1   
    30   24   32 1   
    31   24   33 1   
    32   25   26 1   
    33   25   34 1   
    34   25   35 1   
    35   26   27 1   
    36   26   36 1   
    37   26   37 1   
    38   27   38 1   
    39   27   39 1   
    40   27   40 1   
    41   41   42 1   
    42   41   49 1   
    43   42   43 1   
    44   42   45 1   
    45   42   50 1   
    46   43   44 2   
    47   43   53 1   
    48   45   46 1   
    49   45   51 1   
    50   45   52 1   
    51   46   47 1   
    52   46   48 1   
    53   53   54 1   
    54   53   57 1   
    55   54   55 1   
    56   54   58 1   
    57   54   59 1   
    58   55   56 2   
    59   55   60 1   
    60   60   61 1   
    61   60   68 1   
    62   61   62 1   
    63   61   64 1   
    64   61   69 1   
    65   62   63 2   
    66   62   74 1   
    67   64   65 1   
    68   64   70 1   
    69   64   71 1   
    70   65   66 1   
    71   65   67 2   
    72   66   72 1   
    73   66   73 1   
    74   74   75 1   
    75   74   78 1   
    76   75   76 1   
    77   75   79 1   
    78   75   80 1   
    79   76   77 2   
    80   76   81 1   
    81   81   82 1   
    82   81   93 1   
    83   82   83 1   
    84   82   85 1   
    85   82   94 1   
    86   83   84 2   
    87   83  102 1   
    88   85   86 1   
    89   85   95 1   
    90   85   96 1   
    91   86   87 ar  
    92   86   88 ar  
    93   87   89 ar  
    94   87   97 1   
    95   88   90 ar  
    96   88   98 1   
    97   89   91 ar  
    98   89   99 1   
    99   90   91 ar  
   100   90  100 1   
   101   91   92 1   
   102   92  101 1   
   103  102  103 1   
   104  102  110 1   
   105  103  104 1   
   106  103  106 1   
   107  103  111 1   
   108  104  105 2   
   109  104  121 1   
   110  106  107 1   
   111  106  108 1   
   112  106  112 1   
   113  107  109 1   
   114  107  113 1   
   115  107  114 1   
   116  108  115 1   
   117  108  116 1   
   118  108  117 1   
   119  109  118 1   
   120  109  119 1   
   121  109  120 1   
   122  121  122 1   
   123  121  127 1   
   124  122  123 1   
   125  122  125 1   
   126  122  128 1   
   127  123  124 2   
   128  123  132 1   
   129  125  126 1   
   130  125  129 1   
   131  125  130 1   
   132  126  131 1   
   133  132  133 1   
   134  132  137 1   
   135  133  134 1   
   136  133  136 1   
   137  133  138 1   
   138  134  135 2   
   139  134  142 1   
   140  136  139 1   
   141  136  140 1   
   142  136  141 1   
   143  142  143 1   
   144  142  147 1   
   145  143  144 1   
   146  143  146 1   
   147  143  148 1   
   148  144  145 2   
   149  144  152 1   
   150  146  149 1   
   151  146  150 1   
   152  146  151 1   
   153  152  153 1   
   154  152  161 1   
   155  153  154 1   
   156  153  156 1   
   157  153  162 1   
   158  154  155 2   
   159  154  167 1   
   160  156  157 1   
   161  156  163 1   
   162  156  164 1   
   163  157  158 1   
   164  157  165 1   
   165  157  166 1   
   166  158  159 1   
   167  158  160 1   
   168  167  168 1   
   169  167  172 1   
   170  168  169 1   
   171  168  170 1   
   172  168  171 1   
   173  174  175 1   
   174  174  176 1   
   175  177  178 1   
   176  177  179 1   
   177  180  181 1   
   178  180  182 1   
   179  183  184 1   
   180  183  185 1   
@<TRIPOS>SUBSTRUCTURE
     1 MOL         1 TEMP              0 ****  ****    0 ROOT
