@<TRIPOS>MOLECULE
MOL
  192   187     1     0     0
SMALL
resp


@<TRIPOS>ATOM
      1 C1         -5.8670   -7.1360    0.0280 c3        1 MOL     -0.390948
      2 C2         -4.9770   -5.9630   -0.4460 c         1 MOL      0.814000
      3 O1         -4.7080   -5.8270   -1.6140 o         1 MOL     -0.670558
      4 H1         -5.2380   -7.9250    0.4400 hc        1 MOL      0.091946
      5 H2         -6.5550   -6.7820    0.7960 hc        1 MOL      0.091946
      6 H3         -6.4340   -7.5270   -0.8160 hc        1 MOL      0.091946
      7 N1         -4.5360   -5.1370    0.4630 n         1 MOL     -0.623124
      8 C3         -3.8730   -3.8940    0.1920 c3        1 MOL      0.166907
      9 C4         -2.5820   -3.7770    0.9890 c         1 MOL      0.505659
     10 O2         -2.2140   -2.7130    1.4510 o         1 MOL     -0.529705
     11 C5         -4.7820   -2.6400    0.2010 c3        1 MOL     -0.111508
     12 C6         -5.3230   -2.1840    1.5050 c         1 MOL      0.723515
     13 O3         -5.3000   -0.9320    1.7540 o         1 MOL     -0.749229
     14 O4         -5.6070   -3.0500    2.3270 o         1 MOL     -0.749229
     15 H4         -4.7790   -5.3200    1.4270 hn        1 MOL      0.309683
     16 H5         -3.5080   -3.8910   -0.8350 h1        1 MOL      0.120565
     17 H6         -5.7150   -2.8560   -0.3130 hc        1 MOL      0.020352
     18 H7         -4.1560   -1.8720   -0.2660 hc        1 MOL      0.020352
     19 N2         -1.8870   -4.9070    1.1600 n         1 MOL     -0.554789
     20 C7         -0.5620   -5.0370    1.8060 c3        1 MOL      0.439909
     21 C8          0.3460   -5.8740    0.8800 c         1 MOL      0.446212
     22 O5          0.0490   -7.0400    0.6940 o         1 MOL     -0.570640
     23 C9         -0.6330   -5.7510    3.1830 c3        1 MOL     -0.225194
     24 C10        -1.5620   -4.9490    4.1590 c3        1 MOL     -0.002049
     25 C11        -1.4870   -5.3100    5.6010 c3        1 MOL      0.094291
     26 C12        -2.4210   -4.5140    6.5060 c3        1 MOL      0.003878
     27 N3         -2.0990   -4.6560    7.9380 n4        1 MOL     -0.224543
     28 H8         -2.3330   -5.6910    0.6940 hn        1 MOL      0.219978
     29 H9         -0.1330   -4.0480    1.9480 h1        1 MOL      0.042086
     30 H10         0.3470   -5.8320    3.6520 hc        1 MOL      0.066362
     31 H11        -0.9710   -6.7850    3.0650 hc        1 MOL      0.066362
     32 H12        -2.5890   -5.0080    3.8080 hc        1 MOL      0.034416
     33 H13        -1.2880   -3.9040    4.0650 hc        1 MOL      0.034416
     34 H14        -0.4660   -5.2200    5.9840 hc        1 MOL     -0.012027
     35 H15        -1.7660   -6.3700    5.5950 hc        1 MOL     -0.012027
     36 H16        -3.4560   -4.8500    6.3420 hx        1 MOL      0.079740
     37 H17        -2.3090   -3.4520    6.3000 hx        1 MOL      0.079740
     38 H18        -1.4100   -3.9950    8.2550 hn        1 MOL      0.257498
     39 H19        -2.9690   -4.6730    8.4490 hn        1 MOL      0.257498
     40 H20        -1.6640   -5.5470    8.1220 hn        1 MOL      0.257498
     41 N4          1.4680   -5.3480    0.3850 n         1 MOL     -0.432247
     42 C13         2.1660   -4.0240    0.5380 c3        1 MOL     -0.042038
     43 C14         2.7150   -3.7770    2.0280 c         1 MOL      0.638627
     44 O6          2.1290   -4.2620    2.9700 o         1 MOL     -0.591528
     45 C15         1.3550   -2.8450    0.0100 c3        1 MOL     -0.462058
     46 C16         0.8880   -3.0720   -1.4200 c         1 MOL      0.878096
     47 O7          0.0260   -2.2740   -1.8690 o         1 MOL     -0.716805
     48 O8          1.3300   -3.9760   -2.1740 o         1 MOL     -0.716805
     49 H21         1.8830   -5.9880   -0.2740 hn        1 MOL      0.293922
     50 H22         3.0300   -4.1990   -0.1090 h1        1 MOL      0.069262
     51 H23         2.0030   -1.9720   -0.0700 hc        1 MOL      0.141659
     52 H24         0.5280   -2.5410    0.6550 hc        1 MOL      0.141659
     53 N5          3.7170   -2.9530    2.2590 n         1 MOL     -0.504476
     54 C17         4.6900   -2.5160    1.2150 c3        1 MOL      0.131854
     55 C18         5.9760   -1.9090    1.7370 c         1 MOL      0.590097
     56 O9          5.9820   -1.6220    2.9340 o         1 MOL     -0.567801
     57 H25         3.9760   -2.8220    3.2240 hn        1 MOL      0.314458
     58 H26         4.3010   -1.7350    0.5640 h1        1 MOL      0.044615
     59 H27         5.0050   -3.4100    0.6730 h1        1 MOL      0.044615
     60 N6          7.0680   -1.7910    0.9880 n         1 MOL     -0.588788
     61 C19         7.0520   -1.9290   -0.4970 c3        1 MOL      0.010680
     62 C20         7.7700   -0.8330   -1.3280 c         1 MOL      0.562938
     63 O10         8.8410   -0.4440   -0.9700 o         1 MOL     -0.433640
     64 C21         7.8080   -3.2640   -0.8610 c3        1 MOL     -0.040674
     65 C22         9.0410   -3.4860   -0.0380 c         1 MOL      0.666458
     66 O11        10.0910   -3.3270   -0.6650 o         1 MOL     -0.639339
     67 O12         9.0750   -3.8390    1.1530 o         1 MOL     -0.639339
     68 H28         7.8310   -1.3950    1.5220 hn        1 MOL      0.386093
     69 H29         6.0460   -1.9550   -0.9080 h1        1 MOL     -0.030650
     70 H30         7.9720   -3.3150   -1.9400 hc        1 MOL     -0.006707
     71 H31         7.0770   -4.0460   -0.6610 hc        1 MOL     -0.006707
     72 N7          7.0900   -0.4560   -2.4370 n         1 MOL     -0.449814
     73 C23         7.4440    0.7120   -3.2550 c3        1 MOL     -0.130860
     74 C24         6.8820    1.9740   -2.6810 c         1 MOL      0.648090
     75 O13         7.4590    3.0370   -2.8240 o         1 MOL     -0.565697
     76 H32         6.2200   -0.8910   -2.7260 hn        1 MOL      0.307707
     77 H33         7.1100    0.5910   -4.2860 h1        1 MOL      0.103862
     78 H34         8.5310    0.7800   -3.2670 h1        1 MOL      0.103862
     79 N8          5.7000    1.9330   -2.0370 n         1 MOL     -0.539417
     80 C25         4.9640    3.0730   -1.5080 c3        1 MOL      0.123586
     81 C26         4.1000    2.7540   -0.2440 c         1 MOL      0.539444
     82 O14         3.5240    1.7060   -0.0850 o         1 MOL     -0.524968
     83 C27         4.0530    3.7780   -2.4820 c3        1 MOL      0.187618
     84 C28         4.7030    4.4530   -3.7720 c3        1 MOL     -0.551978
     85 O15         3.3170    4.8690   -1.9400 oh        1 MOL     -0.567343
     86 H35         5.2160    1.0630   -2.2120 hn        1 MOL      0.257714
     87 H36         5.7090    3.7510   -1.0790 h1        1 MOL      0.129750
     88 H37         3.2580    3.1030   -2.7780 h1        1 MOL      0.047031
     89 H38         2.5970    4.9640   -2.5820 ho        1 MOL      0.403444
     90 H39         5.5280    5.1420   -3.5620 hc        1 MOL      0.157047
     91 H40         5.0100    3.6000   -4.3670 hc        1 MOL      0.157047
     92 H41         3.9350    5.0230   -4.2930 hc        1 MOL      0.157047
     93 N9          4.1510    3.7240    0.6490 n         1 MOL     -0.579875
     94 C29         3.4880    3.5400    1.9130 c3        1 MOL     -0.031247
     95 C30         2.4590    4.7370    2.1300 c         1 MOL      0.272402
     96 O16         2.1010    4.9880    3.3280 o         1 MOL     -0.501104
     97 C31         4.5780    3.5370    3.0160 c3        1 MOL      0.214251
     98 C32         5.6880    4.6560    3.0060 c3        1 MOL     -0.002026
     99 C33         5.1410    2.1490    3.1790 c3        1 MOL     -0.122864
    100 C34         6.7100    4.5650    4.1200 c3        1 MOL     -0.228641
    101 H42         4.5800    4.5770    0.3100 hn        1 MOL      0.276434
    102 H43         2.8490    2.6650    1.8700 h1        1 MOL      0.144866
    103 H44         4.0640    3.5800    3.9750 hc        1 MOL     -0.017465
    104 H45         5.2510    5.6450    3.1170 hc        1 MOL      0.035346
    105 H46         6.2800    4.6600    2.0880 hc        1 MOL      0.035346
    106 H47         5.6960    1.9490    4.0940 hc        1 MOL      0.032826
    107 H48         4.3990    1.3440    3.1980 hc        1 MOL      0.032826
    108 H49         5.9680    1.9810    2.4890 hc        1 MOL      0.032826
    109 H50         6.1620    4.4290    5.0530 hc        1 MOL      0.059786
    110 H51         7.3720    3.7420    3.8990 hc        1 MOL      0.059786
    111 H52         7.2270    5.5050    4.3090 hc        1 MOL      0.059786
    112 N10         1.9620    5.3820    1.0680 n         1 MOL     -0.037979
    113 C35         0.9280    6.4670    1.2120 c3        1 MOL     -0.133978
    114 C36        -0.4980    5.9890    1.5210 c         1 MOL      0.442799
    115 O17        -1.3690    6.8150    1.9440 o         1 MOL     -0.527625
    116 C37         0.9330    7.3730   -0.0100 c3        1 MOL      0.165698
    117 C38         0.5550    6.6910   -1.3700 c3        1 MOL     -0.021321
    118 O18         2.1470    7.9760   -0.1710 oh        1 MOL     -0.625868
    119 H53         2.1790    5.0810    0.1290 hn        1 MOL      0.216032
    120 H54         1.2230    7.1410    2.0240 h1        1 MOL      0.164417
    121 H55         0.1640    8.1450    0.0050 h1        1 MOL      0.059636
    122 H56         2.0390    8.6950   -0.7880 ho        1 MOL      0.420302
    123 H57         1.0870    5.7480   -1.3880 hc        1 MOL     -0.002204
    124 H58        -0.5120    6.5540   -1.5260 hc        1 MOL     -0.002204
    125 H59         0.8560    7.2490   -2.2660 hc        1 MOL     -0.002204
    126 N11        -0.8250    4.7010    1.2840 n         1 MOL     -0.405054
    127 C39        -2.2390    4.2100    1.2660 c3        1 MOL      0.039710
    128 C40        -3.1490    4.6820    0.0850 c         1 MOL      0.496694
    129 O19        -2.7620    5.5920   -0.6430 o         1 MOL     -0.468215
    130 C41        -2.9400    4.4060    2.6560 c3        1 MOL      0.399741
    131 C42        -2.0920    3.8200    3.8350 c3        1 MOL     -0.481485
    132 O20        -4.1480    3.6430    2.7360 oh        1 MOL     -0.612214
    133 H60        -0.1090    4.1600    0.8140 hn        1 MOL      0.270237
    134 H61        -2.1850    3.1290    1.1290 h1        1 MOL      0.091871
    135 H62        -3.2200    5.4400    2.8310 h1        1 MOL      0.014534
    136 H63        -4.7120    4.2400    3.2260 ho        1 MOL      0.336410
    137 H64        -1.3990    4.6020    4.1320 hc        1 MOL      0.132044
    138 H65        -2.6820    3.5540    4.7190 hc        1 MOL      0.132044
    139 H66        -1.3820    3.0520    3.5380 hc        1 MOL      0.132044
    140 N12        -4.2560    3.9520   -0.1530 n         1 MOL     -0.503647
    141 C43        -5.2800    4.3130   -1.2040 c3        1 MOL     -0.033244
    142 C44        -5.5940    3.1920   -2.1260 c         1 MOL      0.594381
    143 O21        -6.4290    3.3360   -3.0010 o         1 MOL     -0.580810
    144 C45        -6.5580    4.9060   -0.4710 c3        1 MOL     -0.119067
    145 C46        -7.0690    3.9310    0.6330 c3        1 MOL     -0.310785
    146 C47        -8.3750    4.4600    1.3000 c3        1 MOL      0.209159
    147 C48        -9.1080    3.4110    2.1800 c3        1 MOL     -0.165454
    148 N13        -8.2950    2.7330    3.1760 n4        1 MOL     -0.211814
    149 H67        -4.5020    3.2120    0.4920 hn        1 MOL      0.342251
    150 H68        -4.8300    5.0420   -1.8820 h1        1 MOL      0.127771
    151 H69        -7.3990    5.1630   -1.1180 hc        1 MOL      0.092614
    152 H70        -6.3420    5.9010   -0.0770 hc        1 MOL      0.092614
    153 H71        -6.2820    3.6940    1.3560 hc        1 MOL      0.127018
    154 H72        -7.3500    2.9680    0.2290 hc        1 MOL      0.127018
    155 H73        -9.0820    4.9030    0.5860 hc        1 MOL     -0.015406
    156 H74        -8.2160    5.2810    1.9970 hc        1 MOL     -0.015406
    157 H75        -9.5630    2.6650    1.5280 hx        1 MOL      0.121557
    158 H76        -9.9030    3.9400    2.7040 hx        1 MOL      0.121557
    159 H77        -7.8000    1.9670    2.7490 hn        1 MOL      0.277899
    160 H78        -7.7050    3.4460    3.5700 hn        1 MOL      0.277899
    161 H79        -8.8650    2.4230    3.9470 hn        1 MOL      0.277899
    162 N14        -4.9580    2.0460   -2.0250 n         1 MOL     -0.332327
    163 C49        -5.1640    0.9040   -2.9390 c3        1 MOL     -0.343612
    164 C50        -6.5390    0.3020   -2.5440 c         1 MOL      0.536262
    165 O22        -6.8600    0.0950   -1.4100 o         1 MOL     -0.518724
    166 C51        -4.0070   -0.1290   -2.9480 c3        1 MOL      0.459415
    167 C52        -3.8670   -0.5950   -4.3840 c3        1 MOL      0.045694
    168 C53        -2.6510   -1.5420   -4.5380 c         1 MOL      0.618800
    169 O23        -1.4930   -1.0860   -4.7450 o         1 MOL     -0.785245
    170 O24        -2.7520   -2.7790   -4.2660 o         1 MOL     -0.785245
    171 H80        -4.2380    1.9790   -1.3170 hn        1 MOL      0.214888
    172 H81        -5.2450    1.2330   -3.9790 h1        1 MOL      0.128533
    173 H82        -4.1960   -1.0070   -2.3380 hc        1 MOL     -0.049752
    174 H83        -3.0510    0.2820   -2.6400 hc        1 MOL     -0.049752
    175 H84        -3.8750    0.2390   -5.0800 hc        1 MOL     -0.053635
    176 H85        -4.7330   -1.2230   -4.5590 hc        1 MOL     -0.053635
    177 N15        -7.2130   -0.0890   -3.5530 n         1 MOL     -0.195850
    178 C54        -8.6150   -0.4900   -3.6260 c3        1 MOL     -0.292517
    179 H86        -8.7790   -1.3540   -2.9810 h1        1 MOL      0.122139
    180 H87        -9.2480    0.3350   -3.2970 h1        1 MOL      0.122139
    181 H88        -8.8650   -0.7520   -4.6540 h1        1 MOL      0.122139
    182 H89        -6.9170    0.2350   -4.4600 hn        1 MOL      0.229017
    183 Ca1        -0.2850   -3.4010   -4.2380 Ca        1 MOL      1.750884
    184 O25        -1.7270   -4.8430   -2.4540 oh        1 MOL     -0.915131
    185 H90        -1.5130   -5.7520   -2.2390 ho        1 MOL      0.442477
    186 H91        -2.6530   -4.8590   -2.6790 ho        1 MOL      0.442477
    187 O26         1.5080   -1.2970   -4.2330 oh        1 MOL     -0.915131
    188 H92         2.2390   -1.3000   -4.8560 ho        1 MOL      0.442477
    189 H93         1.0700   -0.4600   -4.3830 ho        1 MOL      0.442477
    190 O27         2.0920   -4.3980   -4.8790 oh        1 MOL     -0.915131
    191 H94         2.9270   -3.9390   -4.7320 ho        1 MOL      0.442477
    192 H95         2.3310   -5.3250   -4.9180 ho        1 MOL      0.442477
@<TRIPOS>BOND
     1    1    2 1   
     2    1    4 1   
     3    1    5 1   
     4    1    6 1   
     5    2    3 2   
     6    2    7 1   
     7    7    8 1   
     8    7   15 1   
     9    8    9 1   
    10    8   11 1   
    11    8   16 1   
    12    9   10 2   
    13    9   19 1   
    14   11   12 1   
    15   11   17 1   
    16   11   18 1   
    17   12   13 1   
    18   12   14 1   
    19   19   20 1   
    20   19   28 1   
    21   20   21 1   
    22   20   23 1   
    23   20   29 1   
    24   21   22 2   
    25   21   41 1   
    26   23   24 1   
    27   23   30 1   
    28   23   31 1   
    29   24   25 1   
    30   24   32 1   
    31   24   33 1   
    32   25   26 1   
    33   25   34 1   
    34   25   35 1   
    35   26   27 1   
    36   26   36 1   
    37   26   37 1   
    38   27   38 1   
    39   27   39 1   
    40   27   40 1   
    41   41   42 1   
    42   41   49 1   
    43   42   43 1   
    44   42   45 1   
    45   42   50 1   
    46   43   44 2   
    47   43   53 1   
    48   45   46 1   
    49   45   51 1   
    50   45   52 1   
    51   46   47 1   
    52   46   48 1   
    53   53   54 1   
    54   53   57 1   
    55   54   55 1   
    56   54   58 1   
    57   54   59 1   
    58   55   56 2   
    59   55   60 1   
    60   60   61 1   
    61   60   68 1   
    62   61   62 1   
    63   61   64 1   
    64   61   69 1   
    65   62   63 2   
    66   62   72 1   
    67   64   65 1   
    68   64   70 1   
    69   64   71 1   
    70   65   66 1   
    71   65   67 1   
    72   72   73 1   
    73   72   76 1   
    74   73   74 1   
    75   73   77 1   
    76   73   78 1   
    77   74   75 2   
    78   74   79 1   
    79   79   80 1   
    80   79   86 1   
    81   80   81 1   
    82   80   83 1   
    83   80   87 1   
    84   81   82 2   
    85   81   93 1   
    86   83   84 1   
    87   83   85 1   
    88   83   88 1   
    89   84   90 1   
    90   84   91 1   
    91   84   92 1   
    92   85   89 1   
    93   93   94 1   
    94   93  101 1   
    95   94   95 1   
    96   94   97 1   
    97   94  102 1   
    98   95   96 2   
    99   95  112 1   
   100   97   98 1   
   101   97   99 1   
   102   97  103 1   
   103   98  100 1   
   104   98  104 1   
   105   98  105 1   
   106   99  106 1   
   107   99  107 1   
   108   99  108 1   
   109  100  109 1   
   110  100  110 1   
   111  100  111 1   
   112  112  113 1   
   113  112  119 1   
   114  113  114 1   
   115  113  116 1   
   116  113  120 1   
   117  114  115 2   
   118  114  126 1   
   119  116  117 1   
   120  116  118 1   
   121  116  121 1   
   122  117  123 1   
   123  117  124 1   
   124  117  125 1   
   125  118  122 1   
   126  126  127 1   
   127  126  133 1   
   128  127  128 1   
   129  127  130 1   
   130  127  134 1   
   131  128  129 2   
   132  128  140 1   
   133  130  131 1   
   134  130  132 1   
   135  130  135 1   
   136  131  137 1   
   137  131  138 1   
   138  131  139 1   
   139  132  136 1   
   140  140  141 1   
   141  140  149 1   
   142  141  142 1   
   143  141  144 1   
   144  141  150 1   
   145  142  143 2   
   146  142  162 1   
   147  144  145 1   
   148  144  151 1   
   149  144  152 1   
   150  145  146 1   
   151  145  153 1   
   152  145  154 1   
   153  146  147 1   
   154  146  155 1   
   155  146  156 1   
   156  147  148 1   
   157  147  157 1   
   158  147  158 1   
   159  148  159 1   
   160  148  160 1   
   161  148  161 1   
   162  162  163 1   
   163  162  171 1   
   164  163  164 1   
   165  163  166 1   
   166  163  172 1   
   167  164  165 2   
   168  164  177 1   
   169  166  167 1   
   170  166  173 1   
   171  166  174 1   
   172  167  168 1   
   173  167  175 1   
   174  167  176 1   
   175  168  169 1   
   176  168  170 1   
   177  177  178 1   
   178  177  182 1   
   179  178  179 1   
   180  178  180 1   
   181  178  181 1   
   182  184  185 1   
   183  184  186 1   
   184  187  188 1   
   185  187  189 1   
   186  190  191 1   
   187  190  192 1   
@<TRIPOS>SUBSTRUCTURE
     1 MOL         1 TEMP              0 ****  ****    0 ROOT
