@<TRIPOS>MOLECULE
MOL
  181   177     1     0     0
SMALL
resp


@<TRIPOS>ATOM
      1 C1         -9.7020    7.5310   -0.3050 c3        1 MOL     -0.286003
      2 C2         -8.7310    6.4190   -0.7960 c         1 MOL      0.719391
      3 O1         -7.9700    6.6960   -1.7180 o         1 MOL     -0.598263
      4 H1        -10.7310    7.2180   -0.4800 hc        1 MOL      0.064413
      5 H2         -9.5510    7.7020    0.7620 hc        1 MOL      0.064413
      6 H3         -9.5060    8.4530   -0.8520 hc        1 MOL      0.064413
      7 N1         -8.7110    5.2110   -0.2960 n         1 MOL     -0.707801
      8 C3         -9.3270    4.7260    0.9970 c3        1 MOL      0.385344
      9 C4        -10.1990    3.4890    0.7910 c         1 MOL      0.412963
     10 O2        -10.6850    2.9160    1.7430 o         1 MOL     -0.525452
     11 C5         -8.2290    4.3710    2.0680 c3        1 MOL     -0.444812
     12 C6         -7.4030    3.1580    1.6600 c         1 MOL      0.903221
     13 O3         -7.4120    2.6770    0.5340 o         1 MOL     -0.758639
     14 O4         -6.6360    2.6440    2.4670 o         1 MOL     -0.758639
     15 H4         -8.1770    4.5190   -0.8080 hn        1 MOL      0.374481
     16 H5         -9.9610    5.4890    1.4470 h1        1 MOL      0.021580
     17 H6         -8.7540    4.2130    3.0100 hc        1 MOL      0.100220
     18 H7         -7.5770    5.2170    2.2730 hc        1 MOL      0.100220
     19 N2        -10.4940    3.1490   -0.4770 n         1 MOL     -0.649194
     20 C7        -11.5980    2.2740   -0.9030 c3        1 MOL      0.487639
     21 C8        -11.0780    0.8050   -1.1160 c         1 MOL      0.265698
     22 O5        -11.8190    0.0520   -1.7030 o         1 MOL     -0.528102
     23 C9        -12.3450    2.8620   -2.0740 c3        1 MOL     -0.389390
     24 H8         -9.9030    3.4770   -1.2250 hn        1 MOL      0.332472
     25 H9        -12.2940    2.1210   -0.0830 h1        1 MOL      0.002563
     26 H10       -12.4930    3.9380   -1.9680 hc        1 MOL      0.096593
     27 H11       -11.6600    2.7310   -2.9230 hc        1 MOL      0.096593
     28 H12       -13.3000    2.3710   -2.2260 hc        1 MOL      0.096593
     29 N3         -9.8750    0.4670   -0.6570 n         1 MOL     -0.118436
     30 C10        -9.2980   -0.8150   -0.7000 c3        1 MOL      0.077377
     31 C11        -8.5580   -1.0880    0.6010 c         1 MOL      0.244314
     32 O6         -8.0700   -0.1710    1.2630 o         1 MOL     -0.489130
     33 C12        -8.3770   -1.1480   -1.8370 c3        1 MOL      0.015740
     34 C13        -7.2630   -0.0920   -1.9440 c         1 MOL      0.607304
     35 O7         -7.3930    0.7650   -2.7820 o         1 MOL     -0.665444
     36 O8         -6.2530   -0.0990   -1.1630 o         1 MOL     -0.665444
     37 H13        -9.3450    1.1330   -0.1200 hn        1 MOL      0.234222
     38 H14       -10.0730   -1.5780   -0.7420 h1        1 MOL      0.003336
     39 H15        -8.9360   -1.1550   -2.7680 hc        1 MOL     -0.004423
     40 H16        -8.0300   -2.1500   -1.5910 hc        1 MOL     -0.004423
     41 N4         -8.4750   -2.3430    0.9770 n         1 MOL     -0.056465
     42 C14        -7.7080   -2.8610    2.0680 c3        1 MOL     -0.505139
     43 C15        -6.2240   -2.7660    1.9840 c         1 MOL      0.797940
     44 O9         -5.6630   -1.9220    1.2600 o         1 MOL     -0.556552
     45 H17        -9.1000   -2.9870    0.5210 hn        1 MOL      0.234417
     46 H18        -7.8930   -3.9440    2.0850 h1        1 MOL      0.174834
     47 H19        -8.0160   -2.4700    3.0380 h1        1 MOL      0.174834
     48 N5         -5.4760   -3.7410    2.5970 n         1 MOL     -0.698239
     49 C16        -4.0280   -3.9000    2.5650 c3        1 MOL      0.133486
     50 C17        -3.5170   -4.5090    1.2140 c         1 MOL      0.810679
     51 O10        -4.2300   -5.1290    0.4770 o         1 MOL     -0.547305
     52 C18        -3.6120   -4.7790    3.7960 c3        1 MOL     -0.366359
     53 C19        -4.1440   -4.2400    5.1940 c         1 MOL      0.726387
     54 N6         -3.8780   -2.9970    5.4970 n         1 MOL     -0.767891
     55 O11        -4.6560   -4.9580    6.0480 o         1 MOL     -0.554147
     56 H20        -6.0040   -4.3740    3.1720 hn        1 MOL      0.325596
     57 H21        -3.6740   -2.8710    2.6910 h1        1 MOL     -0.010574
     58 H22        -2.5260   -4.8880    3.7380 hc        1 MOL      0.112801
     59 H23        -4.0270   -5.7830    3.7390 hc        1 MOL      0.112801
     60 H24        -3.3050   -2.4390    4.8740 hn        1 MOL      0.360526
     61 H25        -4.2380   -2.5810    6.3480 hn        1 MOL      0.360526
     62 N7         -2.2270   -4.2680    0.9850 n         1 MOL     -0.696130
     63 C20        -1.5880   -4.5650   -0.3530 c3        1 MOL     -0.045083
     64 C21        -1.8980   -3.4270   -1.3200 c         1 MOL      0.788775
     65 O12        -2.6830   -2.5110   -1.0570 o         1 MOL     -0.642220
     66 H26        -1.6980   -3.7280    1.6620 hn        1 MOL      0.383916
     67 H27        -1.7610   -5.5570   -0.7560 h1        1 MOL      0.122562
     68 H28        -0.5100   -4.4710   -0.2420 h1        1 MOL      0.122562
     69 N8         -1.2630   -3.3640   -2.5400 n         1 MOL     -0.618481
     70 C22        -0.1800   -4.2600   -3.0160 c3        1 MOL     -0.008021
     71 C23         1.2900   -3.7960   -2.7800 c         1 MOL      0.443104
     72 O13         2.1780   -4.6130   -2.4110 o         1 MOL     -0.541038
     73 C24        -0.3360   -4.6900   -4.4960 c3        1 MOL      0.344029
     74 C25        -1.4400   -5.7630   -4.8140 c3        1 MOL     -0.444855
     75 O14        -0.6110   -3.5520   -5.3000 oh        1 MOL     -0.595168
     76 H29        -1.3890   -2.4760   -3.0130 hn        1 MOL      0.369364
     77 H30        -0.1880   -5.2220   -2.5150 h1        1 MOL      0.055645
     78 H31         0.6910   -4.9700   -4.7260 h1        1 MOL      0.018042
     79 H32        -0.7950   -3.8650   -6.1880 ho        1 MOL      0.394358
     80 H33        -2.4260   -5.4060   -4.5180 hc        1 MOL      0.117175
     81 H34        -1.4500   -5.8440   -5.8920 hc        1 MOL      0.117175
     82 H35        -1.2090   -6.7540   -4.4140 hc        1 MOL      0.117175
     83 N9          1.5590   -2.5050   -2.8400 n         1 MOL     -0.344466
     84 C26         2.8890   -1.8020   -2.7200 c3        1 MOL      0.159051
     85 C27         2.7960   -0.5930   -1.6580 c         1 MOL      0.457236
     86 O15         1.9130    0.2430   -1.8430 o         1 MOL     -0.566372
     87 C28         3.3680   -1.2260   -4.0760 c3        1 MOL      0.029322
     88 C29         3.2410   -2.3070   -5.1470 c3        1 MOL      0.034712
     89 C30         4.8050   -0.6470   -4.0500 c3        1 MOL      0.033650
     90 C31         4.3180   -3.4760   -5.0760 c3        1 MOL     -0.257189
     91 H36         0.7720   -1.8850   -2.9400 hn        1 MOL      0.217277
     92 H37         3.6270   -2.4870   -2.2840 h1        1 MOL      0.078700
     93 H38         2.6800   -0.4100   -4.3240 hc        1 MOL      0.002150
     94 H39         3.3700   -1.7270   -6.0670 hc        1 MOL     -0.024209
     95 H40         2.2340   -2.7170   -5.2490 hc        1 MOL     -0.024209
     96 H41         4.7700    0.2290   -3.3920 hc        1 MOL      0.028859
     97 H42         5.5700   -1.3260   -3.6900 hc        1 MOL      0.028859
     98 H43         5.0670   -0.1750   -4.9920 hc        1 MOL      0.028859
     99 H44         5.3530   -3.1230   -5.0990 hc        1 MOL      0.061317
    100 H45         4.0700   -4.1350   -4.2520 hc        1 MOL      0.061317
    101 H46         4.3090   -3.9630   -6.0510 hc        1 MOL      0.061317
    102 N10         3.7650   -0.3700   -0.7050 n         1 MOL     -0.465307
    103 C32         4.9550   -1.2200   -0.4310 c3        1 MOL      0.207583
    104 C33         6.1120   -0.2400    0.1390 c         1 MOL      0.325878
    105 O16         5.9810    0.9940    0.2600 o         1 MOL     -0.501450
    106 C34         4.6680   -2.3590    0.5640 c3        1 MOL     -0.280085
    107 C35         3.9240   -2.0190    1.8500 c         1 MOL      0.676037
    108 O17         3.8570   -0.7890    2.2510 o         1 MOL     -0.706753
    109 O18         3.3700   -2.9320    2.5200 o         1 MOL     -0.706753
    110 H47         3.6470    0.3640   -0.0300 hn        1 MOL      0.343075
    111 H48         5.2560   -1.4780   -1.4390 h1        1 MOL     -0.009282
    112 H49         5.5410   -2.9170    0.9080 hc        1 MOL      0.047294
    113 H50         4.1160   -3.0810   -0.0290 hc        1 MOL      0.047294
    114 N11         7.1310   -0.8420    0.7530 n         1 MOL     -0.306242
    115 C36         8.1880   -0.1840    1.6110 c3        1 MOL      0.344942
    116 C37         9.5020   -0.1560    0.8250 c         1 MOL      0.085565
    117 O19         9.7440   -1.1040    0.1020 o         1 MOL     -0.454761
    118 C38         8.2330   -1.0530    2.8310 c3        1 MOL     -0.237068
    119 C39         9.4270   -0.7390    3.7590 ca        1 MOL      0.126330
    120 C40        10.7410   -1.2870    3.5370 ca        1 MOL     -0.211126
    121 C41         9.3010    0.1900    4.8620 ca        1 MOL     -0.211126
    122 C42        11.9040   -0.8190    4.1850 ca        1 MOL     -0.063232
    123 C43        10.4390    0.4380    5.6640 ca        1 MOL     -0.063232
    124 C44        11.7390   -0.0510    5.3600 ca        1 MOL     -0.186352
    125 H51         7.2150   -1.8470    0.6490 hn        1 MOL      0.234865
    126 H52         7.9140    0.8020    1.9680 h1        1 MOL      0.052057
    127 H53         8.2590   -2.1160    2.6170 hc        1 MOL      0.095145
    128 H54         7.2810   -1.0110    3.3460 hc        1 MOL      0.095145
    129 H55        10.8680   -1.9060    2.6610 ha        1 MOL      0.136461
    130 H56         8.4280    0.8010    5.0030 ha        1 MOL      0.136461
    131 H57        12.8620   -1.1090    3.7890 ha        1 MOL      0.089400
    132 H58        10.3880    1.0750    6.5340 ha        1 MOL      0.089400
    133 H59        12.6000    0.3220    5.9030 ha        1 MOL      0.109894
    134 N12        10.3710    0.9200    0.9910 n         1 MOL      0.247540
    135 C45        10.1770    2.2070    1.5990 c3        1 MOL     -0.045191
    136 C46         9.0620    3.0270    0.8920 c         1 MOL      0.528991
    137 O20         8.2710    3.6650    1.5450 o         1 MOL     -0.563212
    138 C47        11.5400    2.9400    1.5770 c3        1 MOL     -0.141508
    139 C48        12.2550    2.3480    0.3230 c3        1 MOL      0.049524
    140 C49        11.7820    0.8440    0.4930 c3        1 MOL     -0.287565
    141 H60         9.9150    2.0560    2.6410 h1        1 MOL      0.012329
    142 H61        11.3710    4.0060    1.4380 hc        1 MOL      0.046664
    143 H62        12.1630    2.6970    2.4360 hc        1 MOL      0.046664
    144 H63        11.8590    2.8470   -0.5640 hc        1 MOL      0.012883
    145 H64        13.3280    2.4840    0.3750 hc        1 MOL      0.012883
    146 H65        11.9650    0.2310   -0.3820 h1        1 MOL      0.105884
    147 H66        12.3030    0.3030    1.2790 h1        1 MOL      0.105884
    148 N13         8.9730    2.8860   -0.4510 n         1 MOL     -0.366533
    149 C50         7.9800    3.5700   -1.2920 c3        1 MOL      0.191076
    150 C51         8.1470    5.0780   -1.3920 c         1 MOL      0.394065
    151 O21         8.8660    5.5340   -2.2530 o         1 MOL     -0.583602
    152 C52         8.0680    2.9950   -2.7390 c3        1 MOL     -0.052619
    153 C53         7.5370    1.5070   -2.7560 c3        1 MOL     -0.265985
    154 C54         8.0510    0.8060   -4.0600 c         1 MOL      0.764220
    155 O22         8.7750   -0.1980   -4.0410 o         1 MOL     -0.749545
    156 O23         7.7500    1.3510   -5.1290 o         1 MOL     -0.749545
    157 H67         9.5370    2.1770   -0.8840 hn        1 MOL      0.281168
    158 H68         7.0320    3.3870   -0.7800 h1        1 MOL      0.065307
    159 H69         9.0770    3.0150   -3.1190 hc        1 MOL      0.042928
    160 H70         7.4180    3.6030   -3.3780 hc        1 MOL      0.042928
    161 H71         6.4570    1.4930   -2.7860 hc        1 MOL      0.026269
    162 H72         8.0730    1.0900   -1.8930 hc        1 MOL      0.026269
    163 N14         7.5280    5.9590   -0.6480 n         1 MOL     -0.282729
    164 C55         6.5340    5.8600    0.4410 c3        1 MOL     -0.227210
    165 H73         7.0510    5.7470    1.3950 h1        1 MOL      0.102131
    166 H74         5.9280    6.7650    0.4630 h1        1 MOL      0.102131
    167 H75         5.8920    4.9960    0.2710 h1        1 MOL      0.102131
    168 H76         7.8000    6.9020   -0.8530 hn        1 MOL      0.250409
    169 Ca1        -5.5610    0.7080    1.1410 Ca        1 MOL      1.612139
    170 O24        -5.1460   -0.1110    3.5290 oh        1 MOL     -0.787363
    171 H77        -4.3850    0.2670    3.9680 ho        1 MOL      0.392936
    172 H78        -5.3440   -0.8970    4.0420 ho        1 MOL      0.392936
    173 O25        -3.6280    2.3780    1.8950 oh        1 MOL     -0.787363
    174 H79        -3.5920    3.0670    2.5530 ho        1 MOL      0.392936
    175 H80        -2.7190    2.1420    1.7450 ho        1 MOL      0.392936
    176 O26        -4.7770    2.0710   -0.9960 oh        1 MOL     -0.787363
    177 H81        -5.1150    1.4700   -1.6660 ho        1 MOL      0.392936
    178 H82        -4.2880    2.7330   -1.4910 ho        1 MOL      0.392936
    179 O27        -3.1580   -0.1580    0.2730 oh        1 MOL     -0.787363
    180 H83        -2.8140    0.5330   -0.2890 ho        1 MOL      0.392936
    181 H84        -3.0530   -0.9580   -0.2440 ho        1 MOL      0.392936
@<TRIPOS>BOND
     1    1    2 1   
     2    1    4 1   
     3    1    5 1   
     4    1    6 1   
     5    2    3 2   
     6    2    7 1   
     7    7    8 1   
     8    7   15 1   
     9    8    9 1   
    10    8   11 1   
    11    8   16 1   
    12    9   10 2   
    13    9   19 1   
    14   11   12 1   
    15   11   17 1   
    16   11   18 1   
    17   12   13 1   
    18   12   14 1   
    19   19   20 1   
    20   19   24 1   
    21   20   21 1   
    22   20   23 1   
    23   20   25 1   
    24   21   22 2   
    25   21   29 1   
    26   23   26 1   
    27   23   27 1   
    28   23   28 1   
    29   29   30 1   
    30   29   37 1   
    31   30   31 1   
    32   30   33 1   
    33   30   38 1   
    34   31   32 2   
    35   31   41 1   
    36   33   34 1   
    37   33   39 1   
    38   33   40 1   
    39   34   35 1   
    40   34   36 1   
    41   41   42 1   
    42   41   45 1   
    43   42   43 1   
    44   42   46 1   
    45   42   47 1   
    46   43   44 2   
    47   43   48 1   
    48   48   49 1   
    49   48   56 1   
    50   49   50 1   
    51   49   52 1   
    52   49   57 1   
    53   50   51 2   
    54   50   62 1   
    55   52   53 1   
    56   52   58 1   
    57   52   59 1   
    58   53   54 1   
    59   53   55 2   
    60   54   60 1   
    61   54   61 1   
    62   62   63 1   
    63   62   66 1   
    64   63   64 1   
    65   63   67 1   
    66   63   68 1   
    67   64   65 2   
    68   64   69 1   
    69   69   70 1   
    70   69   76 1   
    71   70   71 1   
    72   70   73 1   
    73   70   77 1   
    74   71   72 2   
    75   71   83 1   
    76   73   74 1   
    77   73   75 1   
    78   73   78 1   
    79   74   80 1   
    80   74   81 1   
    81   74   82 1   
    82   75   79 1   
    83   83   84 1   
    84   83   91 1   
    85   84   85 1   
    86   84   87 1   
    87   84   92 1   
    88   85   86 2   
    89   85  102 1   
    90   87   88 1   
    91   87   89 1   
    92   87   93 1   
    93   88   90 1   
    94   88   94 1   
    95   88   95 1   
    96   89   96 1   
    97   89   97 1   
    98   89   98 1   
    99   90   99 1   
   100   90  100 1   
   101   90  101 1   
   102  102  103 1   
   103  102  110 1   
   104  103  104 1   
   105  103  106 1   
   106  103  111 1   
   107  104  105 2   
   108  104  114 1   
   109  106  107 1   
   110  106  112 1   
   111  106  113 1   
   112  107  108 1   
   113  107  109 1   
   114  114  115 1   
   115  114  125 1   
   116  115  116 1   
   117  115  118 1   
   118  115  126 1   
   119  116  117 2   
   120  116  134 1   
   121  118  119 1   
   122  118  127 1   
   123  118  128 1   
   124  119  120 ar  
   125  119  121 ar  
   126  120  122 ar  
   127  120  129 1   
   128  121  123 ar  
   129  121  130 1   
   130  122  124 ar  
   131  122  131 1   
   132  123  124 ar  
   133  123  132 1   
   134  124  133 1   
   135  134  135 1   
   136  134  140 1   
   137  135  136 1   
   138  135  138 1   
   139  135  141 1   
   140  136  137 2   
   141  136  148 1   
   142  138  139 1   
   143  138  142 1   
   144  138  143 1   
   145  139  140 1   
   146  139  144 1   
   147  139  145 1   
   148  140  146 1   
   149  140  147 1   
   150  148  149 1   
   151  148  157 1   
   152  149  150 1   
   153  149  152 1   
   154  149  158 1   
   155  150  151 2   
   156  150  163 1   
   157  152  153 1   
   158  152  159 1   
   159  152  160 1   
   160  153  154 1   
   161  153  161 1   
   162  153  162 1   
   163  154  155 1   
   164  154  156 1   
   165  163  164 1   
   166  163  168 1   
   167  164  165 1   
   168  164  166 1   
   169  164  167 1   
   170  170  171 1   
   171  170  172 1   
   172  173  174 1   
   173  173  175 1   
   174  176  177 1   
   175  176  178 1   
   176  179  180 1   
   177  179  181 1   
@<TRIPOS>SUBSTRUCTURE
     1 MOL         1 TEMP              0 ****  ****    0 ROOT
