@<TRIPOS>MOLECULE
MOL
  188   182     1     0     0
SMALL
resp


@<TRIPOS>ATOM
      1 C1         -6.1900   -0.3930    3.4320 c3        1 MOL     -0.439400
      2 C2         -6.8640   -1.0760    2.2150 c         1 MOL      0.749603
      3 O1         -6.1380   -1.3380    1.2360 o         1 MOL     -0.568431
      4 H1         -6.8740   -0.4090    4.2810 hc        1 MOL      0.102763
      5 H2         -5.2780   -0.9300    3.6910 hc        1 MOL      0.102763
      6 H3         -5.9470    0.6390    3.1810 hc        1 MOL      0.102763
      7 N1         -8.1160   -1.4490    2.3180 n         1 MOL     -0.708234
      8 C3         -9.1050   -1.8470    1.2320 c3        1 MOL      0.404141
      9 C4         -9.1530   -0.7980    0.0500 c         1 MOL      0.190243
     10 O2         -9.5800   -1.1110   -1.0890 o         1 MOL     -0.436606
     11 C5         -8.8990   -3.3030    0.8250 c3        1 MOL     -0.381107
     12 C6        -10.0540   -3.9550    0.0940 c         1 MOL      0.717953
     13 O3        -11.2120   -3.9330    0.5590 o         1 MOL     -0.653897
     14 O4         -9.7290   -4.5110   -0.9780 o         1 MOL     -0.653897
     15 H4         -8.5320   -1.5240    3.2330 hn        1 MOL      0.361010
     16 H5        -10.0690   -1.8040    1.7460 h1        1 MOL     -0.039373
     17 H6         -8.6990   -3.9100    1.7150 hc        1 MOL      0.125746
     18 H7         -8.0770   -3.1990    0.1120 hc        1 MOL      0.125746
     19 N2         -8.6840    0.4170    0.2320 n         1 MOL     -0.145891
     20 C7         -8.5000    1.4890   -0.8470 c3        1 MOL      0.083402
     21 C8         -7.0950    2.0530   -1.1300 c         1 MOL      0.515168
     22 O5         -6.9430    2.7040   -2.1680 o         1 MOL     -0.563809
     23 C9         -9.4230    2.6740   -0.7560 c3        1 MOL     -0.028897
     24 C10       -10.9400    2.3620   -0.5710 c3        1 MOL      0.001350
     25 C11       -11.8280    3.5700   -0.2890 c3        1 MOL     -0.277916
     26 C12       -13.3390    3.2200   -0.0900 c3        1 MOL      0.298382
     27 N3        -14.1900    4.4530   -0.3290 n4        1 MOL     -0.438585
     28 H8         -8.4850    0.6440    1.1960 hn        1 MOL      0.143059
     29 H9         -8.6010    1.0260   -1.8290 h1        1 MOL      0.123429
     30 H10        -9.2030    3.2950   -1.6300 hc        1 MOL      0.016820
     31 H11        -9.1490    3.2020    0.1620 hc        1 MOL      0.016820
     32 H12       -11.1730    1.7060    0.2680 hc        1 MOL      0.038595
     33 H13       -11.2270    1.9280   -1.5300 hc        1 MOL      0.038595
     34 H14       -11.8240    4.1620   -1.2040 hc        1 MOL      0.085401
     35 H15       -11.5170    4.1230    0.5920 hc        1 MOL      0.085401
     36 H16       -13.5680    2.8030    0.8900 hx        1 MOL      0.032861
     37 H17       -13.6710    2.3950   -0.7280 hx        1 MOL      0.032861
     38 H18       -14.1860    4.7610   -1.2890 hn        1 MOL      0.280836
     39 H19       -15.1640    4.2680   -0.1700 hn        1 MOL      0.280836
     40 H20       -13.9650    5.2200    0.2860 hn        1 MOL      0.280836
     41 N4         -6.1200    1.6720   -0.3380 n         1 MOL     -0.412536
     42 C13        -4.6890    1.9020   -0.5990 c3        1 MOL      0.111697
     43 C14        -4.1990    1.1460   -1.8760 c         1 MOL      0.533105
     44 O6         -4.5500   -0.0430   -2.0470 o         1 MOL     -0.431166
     45 C15        -3.8480    1.5370    0.6430 c3        1 MOL     -0.399501
     46 C16        -2.3330    1.8440    0.3960 c         1 MOL      0.767475
     47 O7         -1.6710    1.0410   -0.2490 o         1 MOL     -0.740512
     48 O8         -1.8200    2.9690    0.6190 o         1 MOL     -0.740512
     49 H21        -6.2810    0.9120    0.3070 hn        1 MOL      0.223431
     50 H22        -4.6340    2.9680   -0.8150 h1        1 MOL      0.043004
     51 H23        -4.0600    0.4670    0.7770 hc        1 MOL      0.111213
     52 H24        -4.3000    2.0310    1.5070 hc        1 MOL      0.111213
     53 N5         -3.5880    1.8420   -2.8360 n         1 MOL     -0.323429
     54 C17        -3.3500    1.3850   -4.2550 c3        1 MOL     -0.147102
     55 C18        -2.5290    0.1190   -4.4030 c         1 MOL      0.475686
     56 O9         -2.6810   -0.6010   -5.3840 o         1 MOL     -0.509881
     57 H25        -3.4390    2.8290   -2.6400 hn        1 MOL      0.244546
     58 H26        -2.8810    2.1770   -4.8450 h1        1 MOL      0.120884
     59 H27        -4.3070    1.2590   -4.7630 h1        1 MOL      0.120884
     60 N6         -1.7350   -0.3210   -3.3750 n         1 MOL     -0.350930
     61 C19        -1.0980   -1.6580   -3.3060 c3        1 MOL      0.038170
     62 C20        -1.3170   -2.2410   -1.9100 c         1 MOL      0.498400
     63 O10        -0.6570   -3.1700   -1.4690 o         1 MOL     -0.588372
     64 C21         0.3520   -1.4870   -3.8010 c3        1 MOL     -0.169641
     65 C22         1.1120   -0.4590   -3.0470 c         1 MOL      0.594118
     66 N7          2.2440   -0.1320   -3.5830 n         1 MOL     -0.695564
     67 O11         0.7130   -0.0670   -1.9780 o         1 MOL     -0.598195
     68 H28        -1.4100    0.3610   -2.6990 hn        1 MOL      0.207715
     69 H29        -1.5160   -2.4090   -3.9680 h1        1 MOL      0.132704
     70 H30         0.2970   -1.1830   -4.8500 hc        1 MOL      0.079507
     71 H31         0.8330   -2.4720   -3.8390 hc        1 MOL      0.079507
     72 H32         2.5120   -0.4240   -4.5090 hn        1 MOL      0.353011
     73 H33         2.8840    0.4110   -3.0180 hn        1 MOL      0.353011
     74 N8         -2.3830   -1.8420   -1.2510 n         1 MOL     -0.229679
     75 C23        -2.9820   -2.5680   -0.0490 c3        1 MOL     -0.087826
     76 C24        -2.2400   -2.6880    1.2060 c         1 MOL      0.676336
     77 O12        -2.5660   -3.5230    2.0420 o         1 MOL     -0.575122
     78 H34        -2.9500   -1.0790   -1.6060 hn        1 MOL      0.159472
     79 H35        -3.1770   -3.6140   -0.2920 h1        1 MOL      0.094697
     80 H36        -3.9550   -2.1270    0.1780 h1        1 MOL      0.094697
     81 N9         -1.2710   -1.8290    1.3490 n         1 MOL     -0.686561
     82 C25        -0.2990   -1.7750    2.3940 c3        1 MOL      0.396350
     83 C26         1.0360   -1.0950    1.9140 c         1 MOL      0.368322
     84 O13         0.9820   -0.1390    1.1330 o         1 MOL     -0.628349
     85 C27        -0.8730   -1.0850    3.6880 c3        1 MOL     -0.360182
     86 C28         0.0400   -0.6890    4.8160 ca        1 MOL     -0.048132
     87 C29         0.8480   -1.6340    5.5390 ca        1 MOL     -0.023444
     88 C30         0.0540    0.6630    5.2260 ca        1 MOL     -0.023444
     89 C31         1.7150   -1.2070    6.5380 ca        1 MOL     -0.440129
     90 C32         0.8570    1.0370    6.4200 ca        1 MOL     -0.440129
     91 C33         1.6630    0.0940    7.0760 ca        1 MOL      0.521357
     92 O14         2.3340    0.3520    8.2730 oh        1 MOL     -0.476314
     93 H37        -1.1070   -1.1050    0.6520 hn        1 MOL      0.380468
     94 H38        -0.0490   -2.8030    2.6730 h1        1 MOL     -0.017378
     95 H39        -1.5220   -1.8590    4.1070 hc        1 MOL      0.157516
     96 H40        -1.4030   -0.2050    3.3250 hc        1 MOL      0.157516
     97 H41         0.7670   -2.6700    5.2650 ha        1 MOL      0.111903
     98 H42        -0.5810    1.4120    4.7850 ha        1 MOL      0.111903
     99 H43         2.2630   -1.9400    7.1190 ha        1 MOL      0.177864
    100 H44         0.8520    2.0850    6.6850 ha        1 MOL      0.177864
    101 H45         2.0580    1.2400    8.5050 ho        1 MOL      0.340520
    102 N10         2.1710   -1.6030    2.3760 n         1 MOL     -0.007480
    103 C34         3.4800   -1.2550    1.7290 c3        1 MOL     -0.257372
    104 C35         3.5880   -1.7990    0.3190 c         1 MOL      0.528584
    105 O15         4.2360   -1.1430   -0.5080 o         1 MOL     -0.523494
    106 C36         4.6670   -1.6920    2.6150 c3        1 MOL     -0.039326
    107 C37         4.6310   -0.9430    3.9630 c3        1 MOL     -0.041604
    108 C38         5.9130   -1.2420    1.8730 c3        1 MOL     -0.170017
    109 C39         4.3270    0.6090    4.0730 c3        1 MOL      0.178447
    110 H46         2.0920   -2.4780    2.8780 hn        1 MOL      0.166500
    111 H47         3.4390   -0.1860    1.5440 h1        1 MOL      0.132975
    112 H48         4.6550   -2.7700    2.8080 hc        1 MOL      0.041590
    113 H49         5.5660   -1.0350    4.5250 hc        1 MOL      0.029695
    114 H50         3.7760   -1.3700    4.4860 hc        1 MOL      0.029695
    115 H51         6.0510   -1.7310    0.9010 hc        1 MOL      0.069456
    116 H52         5.9370   -0.1650    1.7130 hc        1 MOL      0.069456
    117 H53         6.8350   -1.5630    2.3470 hc        1 MOL      0.069456
    118 H54         3.3100    0.8100    3.7340 hc        1 MOL     -0.051118
    119 H55         4.3030    0.8490    5.1300 hc        1 MOL     -0.051118
    120 H56         5.0690    1.1610    3.4940 hc        1 MOL     -0.051118
    121 N11         2.9480   -2.9700    0.0950 n         1 MOL     -0.270767
    122 C40         2.8220   -3.4810   -1.3150 c3        1 MOL     -0.012353
    123 C41         4.1980   -3.5950   -2.1180 c         1 MOL      0.467656
    124 O16         4.2410   -3.6260   -3.3520 o         1 MOL     -0.523693
    125 C42         2.0420   -4.8000   -1.4060 c3        1 MOL      0.139843
    126 O17         2.7270   -5.7970   -0.6930 oh        1 MOL     -0.616866
    127 H57         2.3350   -3.3950    0.7770 hn        1 MOL      0.248136
    128 H58         2.1490   -2.8660   -1.9150 h1        1 MOL      0.059543
    129 H59         1.8470   -5.0880   -2.4420 h1        1 MOL      0.057403
    130 H60         1.0700   -4.6320   -0.9380 h1        1 MOL      0.057403
    131 H61         2.3640   -6.5460   -1.1780 ho        1 MOL      0.407001
    132 N12         5.3370   -3.6780   -1.4180 n         1 MOL     -0.262925
    133 C43         6.7440   -3.6420   -1.6790 c3        1 MOL      0.119524
    134 C44         7.1840   -2.4160   -2.4470 c         1 MOL      0.644236
    135 O18         8.0000   -2.4740   -3.3630 o         1 MOL     -0.571561
    136 C45         7.0770   -5.0350   -2.3620 c3        1 MOL     -0.468919
    137 H62         5.1040   -3.6990   -0.4410 hn        1 MOL      0.178890
    138 H63         7.2180   -3.5340   -0.7050 h1        1 MOL      0.083404
    139 H64         8.1470   -5.0520   -2.5260 hc        1 MOL      0.133463
    140 H65         6.8940   -5.8170   -1.6230 hc        1 MOL      0.133463
    141 H66         6.4800   -5.1540   -3.2710 hc        1 MOL      0.133463
    142 N13         6.8410   -1.2780   -1.8720 n         1 MOL     -0.717589
    143 C46         7.3210   -0.0100   -2.3300 c3        1 MOL      0.643715
    144 C47         8.1250    0.6200   -1.1850 c         1 MOL      0.307855
    145 O19         7.8660    0.3940    0.0270 o         1 MOL     -0.430264
    146 C48         6.1230    0.8060   -2.7780 c3        1 MOL     -0.137778
    147 H67         6.0920   -1.3680   -1.1990 hn        1 MOL      0.227304
    148 H68         7.9520   -0.0100   -3.2150 h1        1 MOL     -0.077922
    149 H69         5.5050    0.2390   -3.4710 hc        1 MOL      0.015233
    150 H70         5.5500    1.2140   -1.9380 hc        1 MOL      0.015233
    151 H71         6.5010    1.6800   -3.3090 hc        1 MOL      0.015233
    152 N14         8.9360    1.5840   -1.5520 n         1 MOL     -0.450591
    153 C49         9.6540    2.4210   -0.6300 c3        1 MOL     -0.066384
    154 C50        10.4130    1.7430    0.5850 c         1 MOL      0.402116
    155 O20        10.4930    2.2600    1.7020 o         1 MOL     -0.463343
    156 C51         8.7590    3.5300   -0.0460 c3        1 MOL      0.192393
    157 C52         8.0700    4.4360   -1.1090 c3        1 MOL     -0.230958
    158 C53         7.3140    5.5660   -0.3980 c         1 MOL      0.705488
    159 O21         7.9020    6.6180   -0.1840 o         1 MOL     -0.711705
    160 O22         6.1490    5.3740   -0.0150 o         1 MOL     -0.711705
    161 H72         8.9640    1.8280   -2.5370 hn        1 MOL      0.322038
    162 H73        10.4050    2.9080   -1.2520 h1        1 MOL      0.075771
    163 H74         9.2040    4.2230    0.6530 hc        1 MOL      0.021674
    164 H75         7.9830    3.0470    0.5490 hc        1 MOL      0.021674
    165 H76         7.3620    3.9160   -1.7590 hc        1 MOL     -0.004563
    166 H77         8.7950    4.9270   -1.7580 hc        1 MOL     -0.004563
    167 N15        11.0000    0.5760    0.2670 n         1 MOL     -0.319650
    168 C54        11.2770   -0.4240    1.3180 c3        1 MOL     -0.149870
    169 H78        10.7690   -0.1340    2.2380 h1        1 MOL      0.089628
    170 H79        10.9150   -1.4000    0.9960 h1        1 MOL      0.089628
    171 H80        12.3510   -0.4750    1.4970 h1        1 MOL      0.089628
    172 H81        11.0110    0.2790   -0.6960 hn        1 MOL      0.256101
    173 Ca1         0.6360    2.1640   -0.4070 Ca        1 MOL      1.814365
    174 O23         3.0370    2.9590    0.5950 oh        1 MOL     -0.845541
    175 H82         3.8370    2.5650    0.2580 ho        1 MOL      0.415658
    176 H83         3.3440    3.6500    1.1810 ho        1 MOL      0.415658
    177 O24        -0.6140    2.8680   -2.5760 oh        1 MOL     -0.845541
    178 H84        -1.4320    3.2600   -2.8830 ho        1 MOL      0.415658
    179 H85        -0.0310    2.9430   -3.3270 ho        1 MOL      0.415658
    180 O25         0.7820    4.8030   -0.2320 oh        1 MOL     -0.845541
    181 H86         1.3050    5.4940   -0.6550 ho        1 MOL      0.415658
    182 H87         0.8250    5.0100    0.6980 ho        1 MOL      0.415658
    183 O26         0.5270    3.1630    2.1610 oh        1 MOL     -0.845541
    184 H88        -0.2960    3.3310    2.6330 ho        1 MOL      0.415658
    185 H89         1.1940    3.5920    2.6980 ho        1 MOL      0.415658
    186 O27         2.4250    2.9190   -2.4860 oh        1 MOL     -0.845541
    187 H90         3.1880    3.3430   -2.0930 ho        1 MOL      0.415658
    188 H91         2.3170    3.3590   -3.3280 ho        1 MOL      0.415658
@<TRIPOS>BOND
     1    1    2 1   
     2    1    4 1   
     3    1    5 1   
     4    1    6 1   
     5    2    3 2   
     6    2    7 1   
     7    7    8 1   
     8    7   15 1   
     9    8    9 1   
    10    8   11 1   
    11    8   16 1   
    12    9   10 2   
    13    9   19 1   
    14   11   12 1   
    15   11   17 1   
    16   11   18 1   
    17   12   13 1   
    18   12   14 1   
    19   19   20 1   
    20   19   28 1   
    21   20   21 1   
    22   20   23 1   
    23   20   29 1   
    24   21   22 2   
    25   21   41 1   
    26   23   24 1   
    27   23   30 1   
    28   23   31 1   
    29   24   25 1   
    30   24   32 1   
    31   24   33 1   
    32   25   26 1   
    33   25   34 1   
    34   25   35 1   
    35   26   27 1   
    36   26   36 1   
    37   26   37 1   
    38   27   38 1   
    39   27   39 1   
    40   27   40 1   
    41   41   42 1   
    42   41   49 1   
    43   42   43 1   
    44   42   45 1   
    45   42   50 1   
    46   43   44 2   
    47   43   53 1   
    48   45   46 1   
    49   45   51 1   
    50   45   52 1   
    51   46   47 1   
    52   46   48 1   
    53   53   54 1   
    54   53   57 1   
    55   54   55 1   
    56   54   58 1   
    57   54   59 1   
    58   55   56 2   
    59   55   60 1   
    60   60   61 1   
    61   60   68 1   
    62   61   62 1   
    63   61   64 1   
    64   61   69 1   
    65   62   63 2   
    66   62   74 1   
    67   64   65 1   
    68   64   70 1   
    69   64   71 1   
    70   65   66 1   
    71   65   67 2   
    72   66   72 1   
    73   66   73 1   
    74   74   75 1   
    75   74   78 1   
    76   75   76 1   
    77   75   79 1   
    78   75   80 1   
    79   76   77 2   
    80   76   81 1   
    81   81   82 1   
    82   81   93 1   
    83   82   83 1   
    84   82   85 1   
    85   82   94 1   
    86   83   84 2   
    87   83  102 1   
    88   85   86 1   
    89   85   95 1   
    90   85   96 1   
    91   86   87 ar  
    92   86   88 ar  
    93   87   89 ar  
    94   87   97 1   
    95   88   90 ar  
    96   88   98 1   
    97   89   91 ar  
    98   89   99 1   
    99   90   91 ar  
   100   90  100 1   
   101   91   92 1   
   102   92  101 1   
   103  102  103 1   
   104  102  110 1   
   105  103  104 1   
   106  103  106 1   
   107  103  111 1   
   108  104  105 2   
   109  104  121 1   
   110  106  107 1   
   111  106  108 1   
   112  106  112 1   
   113  107  109 1   
   114  107  113 1   
   115  107  114 1   
   116  108  115 1   
   117  108  116 1   
   118  108  117 1   
   119  109  118 1   
   120  109  119 1   
   121  109  120 1   
   122  121  122 1   
   123  121  127 1   
   124  122  123 1   
   125  122  125 1   
   126  122  128 1   
   127  123  124 2   
   128  123  132 1   
   129  125  126 1   
   130  125  129 1   
   131  125  130 1   
   132  126  131 1   
   133  132  133 1   
   134  132  137 1   
   135  133  134 1   
   136  133  136 1   
   137  133  138 1   
   138  134  135 2   
   139  134  142 1   
   140  136  139 1   
   141  136  140 1   
   142  136  141 1   
   143  142  143 1   
   144  142  147 1   
   145  143  144 1   
   146  143  146 1   
   147  143  148 1   
   148  144  145 2   
   149  144  152 1   
   150  146  149 1   
   151  146  150 1   
   152  146  151 1   
   153  152  153 1   
   154  152  161 1   
   155  153  154 1   
   156  153  156 1   
   157  153  162 1   
   158  154  155 2   
   159  154  167 1   
   160  156  157 1   
   161  156  163 1   
   162  156  164 1   
   163  157  158 1   
   164  157  165 1   
   165  157  166 1   
   166  158  159 1   
   167  158  160 1   
   168  167  168 1   
   169  167  172 1   
   170  168  169 1   
   171  168  170 1   
   172  168  171 1   
   173  174  175 1   
   174  174  176 1   
   175  177  178 1   
   176  177  179 1   
   177  180  181 1   
   178  180  182 1   
   179  183  184 1   
   180  183  185 1   
   181  186  187 1   
   182  186  188 1   
@<TRIPOS>SUBSTRUCTURE
     1 MOL         1 TEMP              0 ****  ****    0 ROOT
