@<TRIPOS>MOLECULE
MOL
  186   183     1     0     0
SMALL
resp


@<TRIPOS>ATOM
      1 C1         11.3820    5.4980   -2.9920 c3        1 MOL     -0.443269
      2 C2         10.8480    4.3990   -2.0370 c         1 MOL      0.832281
      3 O1         10.7610    3.2150   -2.4030 o         1 MOL     -0.607130
      4 H1         11.8110    5.0300   -3.8790 hc        1 MOL      0.111882
      5 H2         10.5620    6.1530   -3.2870 hc        1 MOL      0.111882
      6 H3         12.1490    6.0800   -2.4820 hc        1 MOL      0.111882
      7 N1         10.5410    4.7820   -0.7810 n         1 MOL     -0.736321
      8 C3         10.1450    3.7230    0.1430 c3        1 MOL     -0.300304
      9 C4          8.9370    2.8630   -0.1140 c         1 MOL      0.729695
     10 O2          7.7930    3.3350   -0.2900 o         1 MOL     -0.671150
     11 C5          9.9890    4.1980    1.6280 c3        1 MOL     -0.267715
     12 C6          9.0760    5.5000    1.7560 c         1 MOL      0.856937
     13 O3          7.8770    5.5970    1.5020 o         1 MOL     -0.750565
     14 O4          9.6360    6.5310    2.1520 o         1 MOL     -0.750565
     15 H4         10.8730    5.6780   -0.4640 hn        1 MOL      0.438519
     16 H5         11.0190    3.0720    0.1600 h1        1 MOL      0.205684
     17 H6         10.9890    4.4680    1.9710 hc        1 MOL      0.116235
     18 H7          9.5080    3.4220    2.2190 hc        1 MOL      0.116235
     19 N2          9.2130    1.5750   -0.2840 n         1 MOL     -0.404689
     20 C7          8.3560    0.4820   -0.8070 c3        1 MOL      0.102671
     21 C8          7.2320    0.1120    0.1290 c         1 MOL      0.790816
     22 O5          7.3880   -0.2560    1.2720 o         1 MOL     -0.593233
     23 C9          9.1520   -0.7270   -1.2370 c3        1 MOL     -0.286962
     24 C10         8.2890   -1.6980   -2.0930 c3        1 MOL      0.044157
     25 C11         9.2340   -2.7350   -2.7180 c3        1 MOL     -0.032559
     26 C12         8.4600   -3.6700   -3.5930 c3        1 MOL      0.143617
     27 N3          9.1700   -4.8290   -4.0940 n4        1 MOL     -0.283087
     28 H8         10.1760    1.3560   -0.0570 hn        1 MOL      0.216260
     29 H9          7.8690    0.9930   -1.6430 h1        1 MOL      0.074371
     30 H10         9.5890   -1.1540   -0.3350 hc        1 MOL      0.116991
     31 H11         9.8920   -0.3870   -1.9700 hc        1 MOL      0.116991
     32 H12         7.6970   -1.1460   -2.8280 hc        1 MOL      0.022090
     33 H13         7.5530   -2.1930   -1.4630 hc        1 MOL      0.022090
     34 H14         9.7330   -3.2600   -1.9040 hc        1 MOL      0.021709
     35 H15         9.9750   -2.2570   -3.3620 hc        1 MOL      0.021709
     36 H16         7.8940   -3.1360   -4.3670 hx        1 MOL      0.043351
     37 H17         7.6290   -4.0440   -2.9920 hx        1 MOL      0.043351
     38 H18         9.7610   -4.4450   -4.8180 hn        1 MOL      0.242883
     39 H19         9.7300   -5.2680   -3.3760 hn        1 MOL      0.242883
     40 H20         8.5920   -5.5450   -4.5080 hn        1 MOL      0.242883
     41 N4          6.0030    0.1790   -0.4210 n         1 MOL     -0.851408
     42 C13         4.7830    0.0090    0.5010 c3        1 MOL      0.554631
     43 C14         3.5000   -0.3840   -0.1830 c         1 MOL      0.332983
     44 O6          3.4850   -0.3320   -1.4340 o         1 MOL     -0.524283
     45 C15         4.5210    1.2880    1.2790 c3        1 MOL      0.249364
     46 C16         4.9460    2.6360    0.6690 c         1 MOL      0.491383
     47 O7          4.7770    2.9460   -0.5460 o         1 MOL     -0.724184
     48 O8          5.4230    3.4830    1.4910 o         1 MOL     -0.724184
     49 H21         5.8340    0.5520   -1.3410 hn        1 MOL      0.340812
     50 H22         4.9740   -0.7550    1.2670 h1        1 MOL     -0.035142
     51 H23         4.9230    1.1660    2.2810 hc        1 MOL     -0.052782
     52 H24         3.4530    1.4190    1.4770 hc        1 MOL     -0.052782
     53 N5          2.4240   -0.8900    0.4490 n         1 MOL     -0.445442
     54 C17         2.1980   -1.2740    1.8150 c3        1 MOL     -0.152995
     55 C18         2.6030   -2.7800    1.9990 c         1 MOL      0.502124
     56 O9          2.9550   -3.4770    1.0170 o         1 MOL     -0.531341
     57 H25         1.7210   -1.2120   -0.1860 hn        1 MOL      0.382254
     58 H26         1.1220   -1.2350    2.0030 h1        1 MOL      0.111160
     59 H27         2.6010   -0.4920    2.4690 h1        1 MOL      0.111160
     60 N6          2.6130   -3.2110    3.2400 n         1 MOL     -0.438603
     61 C19         2.7510   -4.6220    3.5920 c3        1 MOL      0.159355
     62 C20         1.5110   -5.4090    3.3730 c         1 MOL      0.447657
     63 O10         0.4270   -5.1460    3.9700 o         1 MOL     -0.498027
     64 C21         3.2100   -4.6240    5.0800 c3        1 MOL     -0.325714
     65 C22         3.5340   -6.0760    5.6480 c         1 MOL      0.764203
     66 O11         3.7740   -6.2060    6.8620 o         1 MOL     -0.656738
     67 O12         3.5920   -7.0530    4.9040 o         1 MOL     -0.656738
     68 H28         2.4110   -2.5280    3.9510 hn        1 MOL      0.290659
     69 H29         3.5580   -5.1180    3.0450 h1        1 MOL      0.029761
     70 H30         2.3600   -4.2090    5.6180 hc        1 MOL      0.079895
     71 H31         4.1230   -4.0430    5.2200 hc        1 MOL      0.079895
     72 N7          1.6160   -6.4000    2.4600 n         1 MOL     -0.236559
     73 C23         0.5320   -7.2550    2.0940 c3        1 MOL     -0.141430
     74 C24        -0.2160   -6.6100    0.9410 c         1 MOL      0.536947
     75 O13        -1.4650   -6.6130    0.9660 o         1 MOL     -0.566408
     76 H32         2.4970   -6.4480    1.9640 hn        1 MOL      0.211211
     77 H33        -0.1480   -7.4340    2.9330 h1        1 MOL      0.105836
     78 H34         0.9060   -8.2210    1.7900 h1        1 MOL      0.105836
     79 N8          0.4510   -5.8820    0.0860 n         1 MOL     -0.418709
     80 C25        -0.0400   -4.9000   -0.9620 c3        1 MOL      0.024598
     81 C26        -0.3860   -3.5050   -0.4360 c         1 MOL      0.601231
     82 O14        -0.0120   -3.2190    0.7350 o         1 MOL     -0.467383
     83 C27         0.9240   -4.8130   -2.1600 c3        1 MOL      0.180199
     84 C28         2.2510   -4.1440   -1.7960 c3        1 MOL     -0.047270
     85 O15         1.1860   -6.1500   -2.6030 oh        1 MOL     -0.614131
     86 H35         1.4460   -5.7510    0.2260 hn        1 MOL      0.295894
     87 H36        -0.9920   -5.2900   -1.3310 h1        1 MOL      0.024746
     88 H37         0.4870   -4.2520   -2.9900 h1        1 MOL      0.010385
     89 H38         0.3640   -6.4420   -3.0180 ho        1 MOL      0.392711
     90 H39         2.8660   -4.8730   -1.2510 hc        1 MOL      0.030183
     91 H40         2.8250   -3.9100   -2.6940 hc        1 MOL      0.030183
     92 H41         2.0830   -3.2300   -1.2230 hc        1 MOL      0.030183
     93 N9         -0.9280   -2.6330   -1.2920 n         1 MOL     -0.500318
     94 C29        -1.4490   -1.3430   -1.0210 c3        1 MOL     -0.007474
     95 C30        -2.9550   -1.4140   -0.6690 c         1 MOL      0.652771
     96 O16        -3.4960   -0.7010    0.1960 o         1 MOL     -0.567028
     97 C31        -1.0310   -0.3620   -2.1420 c3        1 MOL     -0.010496
     98 C32         0.3610   -0.6740   -2.8050 c3        1 MOL      0.242153
     99 C33        -0.9970    1.0390   -1.5170 c3        1 MOL     -0.122655
    100 C34         0.6560    0.1670   -4.0260 c3        1 MOL     -0.227465
    101 H42        -1.1040   -3.0530   -2.2000 hn        1 MOL      0.262469
    102 H43        -0.8710   -1.0170   -0.1520 h1        1 MOL      0.038049
    103 H44        -1.7800   -0.3900   -2.9370 hc        1 MOL      0.008752
    104 H45         0.3110   -1.6830   -3.2160 hc        1 MOL     -0.059891
    105 H46         1.1820   -0.6660   -2.0780 hc        1 MOL     -0.059891
    106 H47        -1.2670    1.8350   -2.2180 hc        1 MOL      0.044439
    107 H48        -1.8070    1.2430   -0.8120 hc        1 MOL      0.044439
    108 H49        -0.0360    1.3060   -1.0740 hc        1 MOL      0.044439
    109 H50         0.2780   -0.2260   -4.9630 hc        1 MOL      0.047795
    110 H51         0.4010    1.2300   -3.9410 hc        1 MOL      0.047795
    111 H52         1.7370    0.0630   -4.0950 hc        1 MOL      0.047795
    112 N10        -3.7240   -2.2960   -1.2220 n         1 MOL     -0.463142
    113 C35        -5.1410   -2.4550   -0.9880 c3        1 MOL      0.017825
    114 C36        -5.9510   -1.9180   -2.1890 c         1 MOL      0.647764
    115 O17        -5.5720   -2.1950   -3.3600 o         1 MOL     -0.551162
    116 C37        -5.4530   -3.9020   -0.5860 c3        1 MOL      0.324703
    117 C38        -4.7860   -4.4540    0.6100 c3        1 MOL     -0.304561
    118 O18        -6.7860   -4.0940   -0.3570 oh        1 MOL     -0.666528
    119 H53        -3.3680   -2.8160   -2.0180 hn        1 MOL      0.231421
    120 H54        -5.4510   -1.8230   -0.1550 h1        1 MOL      0.120215
    121 H55        -5.2430   -4.4750   -1.4850 h1        1 MOL     -0.023274
    122 H56        -6.7910   -5.0020   -0.0540 ho        1 MOL      0.411650
    123 H57        -5.2120   -3.9470    1.4770 hc        1 MOL      0.099403
    124 H58        -5.0890   -5.5010    0.7040 hc        1 MOL      0.099403
    125 H59        -3.7310   -4.2650    0.4400 hc        1 MOL      0.099403
    126 N11        -7.0790   -1.2030   -1.9810 n         1 MOL     -0.676623
    127 C39        -7.9530   -0.6280   -3.0480 c3        1 MOL      0.075086
    128 C40        -8.4440    0.7860   -2.6810 c         1 MOL      0.672370
    129 O19        -8.4890    1.6370   -3.5520 o         1 MOL     -0.588449
    130 C41        -9.1960   -1.5120   -3.2340 c3        1 MOL      0.239377
    131 C42       -10.1370   -1.0620   -4.3330 c3        1 MOL     -0.444327
    132 O20        -9.9970   -1.5820   -2.0400 oh        1 MOL     -0.569930
    133 H60        -7.3650   -1.0980   -1.0190 hn        1 MOL      0.341613
    134 H61        -7.4340   -0.5510   -4.0050 h1        1 MOL      0.098195
    135 H62        -8.8850   -2.5230   -3.5250 h1        1 MOL      0.063162
    136 H63        -9.9000   -2.5170   -1.8490 ho        1 MOL      0.371080
    137 H64        -9.6910   -1.1070   -5.3270 hc        1 MOL      0.121885
    138 H65       -10.9800   -1.7400   -4.4170 hc        1 MOL      0.121885
    139 H66       -10.4200   -0.0210   -4.1850 hc        1 MOL      0.121885
    140 N12        -8.7200    1.0740   -1.4030 n         1 MOL     -0.429171
    141 C43        -8.9560    2.4340   -0.8480 c3        1 MOL      0.114023
    142 C44        -8.1150    2.6980    0.4320 c         1 MOL      0.496696
    143 O21        -7.7340    1.7280    1.1030 o         1 MOL     -0.507899
    144 C45       -10.5120    2.5230   -0.5530 c3        1 MOL     -0.312536
    145 C46       -10.9930    1.3160    0.2880 c3        1 MOL      0.193576
    146 C47       -12.4890    1.6060    0.5530 c3        1 MOL      0.033053
    147 C48       -13.2120    0.5630    1.4030 c3        1 MOL     -0.097355
    148 N13       -13.6810   -0.5550    0.5650 n4        1 MOL     -0.264935
    149 H67        -8.7160    0.3170   -0.7270 hn        1 MOL      0.193369
    150 H68        -8.6820    3.1840   -1.5850 h1        1 MOL      0.081718
    151 H69       -11.0420    2.4580   -1.4970 hc        1 MOL      0.091446
    152 H70       -10.7050    3.4180    0.0460 hc        1 MOL      0.091446
    153 H71       -10.4340    1.2780    1.2220 hc        1 MOL     -0.004555
    154 H72       -11.0250    0.3550   -0.2280 hc        1 MOL     -0.004555
    155 H73       -12.9850    1.8170   -0.3930 hc        1 MOL      0.019478
    156 H74       -12.5600    2.5500    1.0960 hc        1 MOL      0.019478
    157 H75       -13.9960    1.0750    1.9620 hx        1 MOL      0.102368
    158 H76       -12.4710    0.2870    2.1550 hx        1 MOL      0.102368
    159 H77       -14.3200   -0.2790   -0.1670 hn        1 MOL      0.248541
    160 H78       -12.8410   -1.0640    0.3420 hn        1 MOL      0.248541
    161 H79       -14.2420   -1.0680    1.2310 hn        1 MOL      0.248541
    162 N14        -8.0090    3.9600    0.7870 n         1 MOL     -0.529376
    163 C49        -7.1250    4.3560    1.8760 c3        1 MOL      0.392097
    164 C50        -5.5970    4.1000    1.7200 c         1 MOL      0.208876
    165 O22        -4.9780    3.7520    2.7380 o         1 MOL     -0.492936
    166 C51        -7.2980    5.9160    2.0220 c3        1 MOL     -0.160695
    167 C52        -6.3740    6.5600    3.0390 c3        1 MOL     -0.082374
    168 C53        -6.7170    7.9390    3.3170 c         1 MOL      0.691840
    169 O23        -6.7250    8.3780    4.5090 o         1 MOL     -0.645796
    170 O24        -6.9450    8.7400    2.3940 o         1 MOL     -0.645796
    171 H80        -8.2580    4.6220    0.0720 hn        1 MOL      0.288144
    172 H81        -7.4060    3.9470    2.8460 h1        1 MOL      0.039903
    173 H82        -8.3420    6.0230    2.3140 hc        1 MOL      0.027024
    174 H83        -7.1030    6.3620    1.0440 hc        1 MOL      0.027024
    175 H84        -5.4000    6.6000    2.5570 hc        1 MOL      0.034702
    176 H85        -6.2770    5.9430    3.9370 hc        1 MOL      0.034702
    177 N15        -4.9490    4.0790    0.5540 n         1 MOL     -0.160212
    178 C54        -5.4500    4.3700   -0.8460 c3        1 MOL     -0.259273
    179 H86        -4.6900    4.0810   -1.5710 h1        1 MOL      0.107019
    180 H87        -6.3630    3.8020   -1.0310 h1        1 MOL      0.107019
    181 H88        -5.6590    5.4350   -0.9440 h1        1 MOL      0.107019
    182 H89        -3.9650    3.8600    0.6340 hn        1 MOL      0.253321
    183 Ca1         6.0490    5.2200   -0.2610 Ca        1 MOL      1.716834
    184 O25         4.3040    5.2190   -2.5080 oh        1 MOL     -0.822596
    185 H90         4.5520    6.0320   -2.9470 ho        1 MOL      0.413097
    186 H91         3.5770    4.8790   -3.0330 ho        1 MOL      0.413097
@<TRIPOS>BOND
     1    1    2 1   
     2    1    4 1   
     3    1    5 1   
     4    1    6 1   
     5    2    3 2   
     6    2    7 1   
     7    7    8 1   
     8    7   15 1   
     9    8    9 1   
    10    8   11 1   
    11    8   16 1   
    12    9   10 2   
    13    9   19 1   
    14   11   12 1   
    15   11   17 1   
    16   11   18 1   
    17   12   13 1   
    18   12   14 1   
    19   19   20 1   
    20   19   28 1   
    21   20   21 1   
    22   20   23 1   
    23   20   29 1   
    24   21   22 2   
    25   21   41 1   
    26   23   24 1   
    27   23   30 1   
    28   23   31 1   
    29   24   25 1   
    30   24   32 1   
    31   24   33 1   
    32   25   26 1   
    33   25   34 1   
    34   25   35 1   
    35   26   27 1   
    36   26   36 1   
    37   26   37 1   
    38   27   38 1   
    39   27   39 1   
    40   27   40 1   
    41   41   42 1   
    42   41   49 1   
    43   42   43 1   
    44   42   45 1   
    45   42   50 1   
    46   43   44 2   
    47   43   53 1   
    48   45   46 1   
    49   45   51 1   
    50   45   52 1   
    51   46   47 1   
    52   46   48 1   
    53   53   54 1   
    54   53   57 1   
    55   54   55 1   
    56   54   58 1   
    57   54   59 1   
    58   55   56 2   
    59   55   60 1   
    60   60   61 1   
    61   60   68 1   
    62   61   62 1   
    63   61   64 1   
    64   61   69 1   
    65   62   63 2   
    66   62   72 1   
    67   64   65 1   
    68   64   70 1   
    69   64   71 1   
    70   65   66 1   
    71   65   67 1   
    72   72   73 1   
    73   72   76 1   
    74   73   74 1   
    75   73   77 1   
    76   73   78 1   
    77   74   75 2   
    78   74   79 1   
    79   79   80 1   
    80   79   86 1   
    81   80   81 1   
    82   80   83 1   
    83   80   87 1   
    84   81   82 2   
    85   81   93 1   
    86   83   84 1   
    87   83   85 1   
    88   83   88 1   
    89   84   90 1   
    90   84   91 1   
    91   84   92 1   
    92   85   89 1   
    93   93   94 1   
    94   93  101 1   
    95   94   95 1   
    96   94   97 1   
    97   94  102 1   
    98   95   96 2   
    99   95  112 1   
   100   97   98 1   
   101   97   99 1   
   102   97  103 1   
   103   98  100 1   
   104   98  104 1   
   105   98  105 1   
   106   99  106 1   
   107   99  107 1   
   108   99  108 1   
   109  100  109 1   
   110  100  110 1   
   111  100  111 1   
   112  112  113 1   
   113  112  119 1   
   114  113  114 1   
   115  113  116 1   
   116  113  120 1   
   117  114  115 2   
   118  114  126 1   
   119  116  117 1   
   120  116  118 1   
   121  116  121 1   
   122  117  123 1   
   123  117  124 1   
   124  117  125 1   
   125  118  122 1   
   126  126  127 1   
   127  126  133 1   
   128  127  128 1   
   129  127  130 1   
   130  127  134 1   
   131  128  129 2   
   132  128  140 1   
   133  130  131 1   
   134  130  132 1   
   135  130  135 1   
   136  131  137 1   
   137  131  138 1   
   138  131  139 1   
   139  132  136 1   
   140  140  141 1   
   141  140  149 1   
   142  141  142 1   
   143  141  144 1   
   144  141  150 1   
   145  142  143 2   
   146  142  162 1   
   147  144  145 1   
   148  144  151 1   
   149  144  152 1   
   150  145  146 1   
   151  145  153 1   
   152  145  154 1   
   153  146  147 1   
   154  146  155 1   
   155  146  156 1   
   156  147  148 1   
   157  147  157 1   
   158  147  158 1   
   159  148  159 1   
   160  148  160 1   
   161  148  161 1   
   162  162  163 1   
   163  162  171 1   
   164  163  164 1   
   165  163  166 1   
   166  163  172 1   
   167  164  165 2   
   168  164  177 1   
   169  166  167 1   
   170  166  173 1   
   171  166  174 1   
   172  167  168 1   
   173  167  175 1   
   174  167  176 1   
   175  168  169 1   
   176  168  170 1   
   177  177  178 1   
   178  177  182 1   
   179  178  179 1   
   180  178  180 1   
   181  178  181 1   
   182  184  185 1   
   183  184  186 1   
@<TRIPOS>SUBSTRUCTURE
     1 MOL         1 TEMP              0 ****  ****    0 ROOT
