@<TRIPOS>MOLECULE
MOL
  192   187     1     0     0
SMALL
resp


@<TRIPOS>ATOM
      1 C1          5.1570    1.9700    6.1260 c3        1 MOL     -0.250939
      2 C2          4.7290    1.7830    4.6230 c         1 MOL      0.678426
      3 O1          4.3760    2.7010    3.8830 o         1 MOL     -0.560952
      4 H1          4.6800    1.2030    6.7370 hc        1 MOL      0.070416
      5 H2          6.2400    1.8790    6.2110 hc        1 MOL      0.070416
      6 H3          4.8460    2.9560    6.4730 hc        1 MOL      0.070416
      7 N1          4.8800    0.5600    4.0630 n         1 MOL     -0.485351
      8 C3          5.0050    0.2850    2.6450 c3        1 MOL      0.152906
      9 C4          3.5690    0.1680    1.9970 c         1 MOL     -0.125948
     10 O2          3.4980   -0.3190    0.8930 o         1 MOL     -0.144587
     11 C5          5.8360   -1.0020    2.4700 c3        1 MOL     -0.132764
     12 C6          5.2870   -2.1460    3.2500 c         1 MOL      0.815358
     13 O3          4.3600   -2.7950    2.7710 o         1 MOL     -0.729487
     14 O4          5.8520   -2.5150    4.3260 o         1 MOL     -0.729487
     15 H4          5.1870   -0.1540    4.7060 hn        1 MOL      0.245174
     16 H5          5.4990    1.0880    2.1020 h1        1 MOL      0.136620
     17 H6          6.8770   -0.8510    2.7870 hc        1 MOL      0.019328
     18 H7          5.8710   -1.2970    1.4240 hc        1 MOL      0.019328
     19 N2          2.5300    0.7140    2.6270 n         1 MOL     -0.122350
     20 C7          1.1610    0.4710    2.3260 c3        1 MOL     -0.014848
     21 C8          0.3010    1.7180    2.1100 c         1 MOL      0.307421
     22 O5          0.4520    2.7800    2.7930 o         1 MOL     -0.476419
     23 C9          0.6070   -0.4260    3.3750 c3        1 MOL     -0.257953
     24 C10         1.4440   -1.7100    3.5350 c3        1 MOL      0.122950
     25 C11         0.9040   -2.6450    4.6830 c3        1 MOL     -0.015765
     26 C12         2.0350   -3.1190    5.6320 c3        1 MOL     -0.052310
     27 N3          2.8950   -4.1430    4.9760 n4        1 MOL     -0.274762
     28 H8          2.6990    1.3380    3.4040 hn        1 MOL      0.224565
     29 H9          1.1190   -0.0390    1.3600 h1        1 MOL      0.437794
     30 H10        -0.4580   -0.6540    3.2460 hc        1 MOL      0.087231
     31 H11         0.6630    0.1590    4.2890 hc        1 MOL      0.087231
     32 H12         2.4370   -1.3870    3.8390 hc        1 MOL     -0.023607
     33 H13         1.4430   -2.2620    2.6030 hc        1 MOL     -0.023607
     34 H14         0.4460   -3.5260    4.2320 hc        1 MOL      0.036854
     35 H15         0.0850   -2.1060    5.1590 hc        1 MOL      0.036854
     36 H16         1.4240   -3.5780    6.4100 hx        1 MOL      0.085302
     37 H17         2.5360   -2.2580    6.0980 hx        1 MOL      0.085302
     38 H18         3.7240   -4.3540    5.5230 hn        1 MOL      0.293109
     39 H19         2.4650   -5.0050    4.6890 hn        1 MOL      0.293109
     40 H20         3.3320   -3.7270    4.1610 hn        1 MOL      0.293109
     41 N4         -0.5630    1.7530    1.0510 n         1 MOL     -0.088955
     42 C13        -1.0070    0.6670    0.0930 c3        1 MOL     -0.629288
     43 C14        -1.5700   -0.6580    0.6680 c         1 MOL      0.553299
     44 O6         -0.9080   -1.6570    0.5620 o         1 MOL     -0.543274
     45 C15         0.0420    0.5030   -1.1000 c3        1 MOL     -0.697947
     46 C16         0.2840    1.8800   -1.8160 c         1 MOL      0.641475
     47 O7          1.0360    1.8170   -2.7800 o         1 MOL     -0.624974
     48 O8         -0.4490    2.8920   -1.6820 o         1 MOL     -0.624974
     49 H21        -1.0260    2.6470    0.9760 hn        1 MOL      0.133019
     50 H22        -1.9200    0.9920   -0.4000 h1        1 MOL      0.180234
     51 H23        -0.4320   -0.1150   -1.8660 hc        1 MOL      0.327443
     52 H24         1.0350    0.1460   -0.8380 hc        1 MOL      0.327443
     53 N5         -2.6570   -0.6390    1.4460 n         1 MOL     -0.018916
     54 C17        -3.4790    0.4650    1.7690 c3        1 MOL     -0.179659
     55 C18        -4.4810    0.2500    2.9460 c         1 MOL      0.540871
     56 O9         -4.4850   -0.8110    3.4810 o         1 MOL     -0.519092
     57 H25        -2.7950   -1.5270    1.9030 hn        1 MOL      0.129047
     58 H26        -3.9580    0.8050    0.8530 h1        1 MOL      0.097980
     59 H27        -2.9170    1.3610    2.0350 h1        1 MOL      0.097980
     60 N6         -5.3190    1.1850    3.3330 n         1 MOL     -0.447620
     61 C19        -5.6560    2.4580    2.6320 c3        1 MOL      0.040096
     62 C20        -6.7900    2.1880    1.5810 c         1 MOL      0.421211
     63 O10        -7.7010    1.4140    1.8480 o         1 MOL     -0.428930
     64 C21        -6.0900    3.5810    3.6230 c3        1 MOL     -0.165019
     65 C22        -7.3290    3.3560    4.4920 c         1 MOL      0.653218
     66 O11        -7.1710    2.7410    5.6030 o         1 MOL     -0.611851
     67 O12        -8.4990    3.6370    4.1110 o         1 MOL     -0.611851
     68 H28        -5.9100    1.0300    4.1450 hn        1 MOL      0.318206
     69 H29        -4.7250    2.8350    2.2070 h1        1 MOL      0.043169
     70 H30        -6.1600    4.4260    2.9420 hc        1 MOL      0.019647
     71 H31        -5.2500    3.7440    4.2930 hc        1 MOL      0.019647
     72 N7         -6.6880    2.5900    0.3450 n         1 MOL     -0.112543
     73 C23        -7.5420    2.4210   -0.8040 c3        1 MOL     -0.308781
     74 C24        -7.5560    0.9600   -1.3840 c         1 MOL      0.538324
     75 O13        -8.6550    0.4660   -1.7010 o         1 MOL     -0.506235
     76 H32        -5.9050    3.1770    0.0980 hn        1 MOL      0.106004
     77 H33        -7.0370    2.9670   -1.5930 h1        1 MOL      0.140440
     78 H34        -8.5550    2.8260   -0.6940 h1        1 MOL      0.140440
     79 N8         -6.3710    0.3200   -1.4720 n         1 MOL     -0.327517
     80 C25        -6.2290   -1.1110   -1.8280 c3        1 MOL     -0.281293
     81 C26        -4.8740   -1.7980   -1.2960 c         1 MOL      0.571209
     82 O14        -3.8430   -1.1580   -1.4760 o         1 MOL     -0.428373
     83 C27        -6.3040   -1.3640   -3.3640 c3        1 MOL      0.363119
     84 C28        -5.4300   -0.4570   -4.2250 c3        1 MOL     -0.270495
     85 O15        -7.5490   -1.3820   -4.0270 oh        1 MOL     -0.611053
     86 H35        -5.4690    0.7440   -1.2800 hn        1 MOL      0.217749
     87 H36        -7.0810   -1.5700   -1.3270 h1        1 MOL      0.170861
     88 H37        -6.0270   -2.4080   -3.5040 h1        1 MOL      0.061894
     89 H38        -7.7490   -0.4530   -4.1690 ho        1 MOL      0.392012
     90 H39        -5.7330    0.5710   -4.0100 hc        1 MOL      0.059312
     91 H40        -4.4280   -0.5740   -3.8070 hc        1 MOL      0.059312
     92 H41        -5.4520   -0.7460   -5.2700 hc        1 MOL      0.059312
     93 N9         -4.9130   -3.0220   -0.7890 n         1 MOL     -0.486939
     94 C29        -3.8050   -3.6170   -0.1170 c3        1 MOL     -0.170201
     95 C30        -2.6190   -4.0540   -0.9600 c         1 MOL      0.293592
     96 O16        -1.8750   -4.9060   -0.4840 o         1 MOL     -0.501195
     97 C31        -4.2650   -4.6450    0.8910 c3        1 MOL      0.290407
     98 C32        -4.7020   -5.9650    0.2260 c3        1 MOL      0.088845
     99 C33        -5.2950   -4.0950    1.9330 c3        1 MOL     -0.324754
    100 C34        -4.6630   -7.1880    1.1930 c3        1 MOL     -0.102032
    101 H42        -5.7600   -3.5440   -0.6460 hn        1 MOL      0.301780
    102 H43        -3.3800   -2.7850    0.4450 h1        1 MOL      0.181901
    103 H44        -3.4400   -4.9290    1.5470 hc        1 MOL     -0.014483
    104 H45        -4.0510   -6.2380   -0.6030 hc        1 MOL     -0.021384
    105 H46        -5.7100   -5.8490   -0.1500 hc        1 MOL     -0.021384
    106 H47        -6.1210   -3.6150    1.4020 hc        1 MOL      0.073763
    107 H48        -5.6110   -4.8730    2.6220 hc        1 MOL      0.073763
    108 H49        -4.8860   -3.2670    2.5100 hc        1 MOL      0.073763
    109 H50        -3.6480   -7.3430    1.5470 hc        1 MOL      0.022151
    110 H51        -5.3080   -6.9850    2.0500 hc        1 MOL      0.022151
    111 H52        -5.0330   -8.1080    0.7410 hc        1 MOL      0.022151
    112 N10        -2.3780   -3.4730   -2.1040 n         1 MOL     -0.061347
    113 C35        -1.2940   -3.8960   -3.0060 c3        1 MOL      0.010238
    114 C36         0.1210   -3.7530   -2.4820 c         1 MOL      0.345944
    115 O17         0.9400   -4.4780   -3.0080 o         1 MOL     -0.531187
    116 C37        -1.4610   -3.2530   -4.3550 c3        1 MOL      0.190655
    117 C38        -1.0980   -1.8220   -4.4500 c3        1 MOL     -0.066654
    118 O18        -2.8060   -3.3680   -4.8500 oh        1 MOL     -0.680714
    119 H53        -3.0370   -2.8260   -2.5230 hn        1 MOL      0.171561
    120 H54        -1.3150   -4.9540   -3.2730 h1        1 MOL      0.100858
    121 H55        -0.8760   -3.8720   -5.0260 h1        1 MOL      0.046367
    122 H56        -2.8280   -3.1400   -5.7830 ho        1 MOL      0.424065
    123 H57        -1.0380   -1.3890   -3.4520 hc        1 MOL      0.025266
    124 H58        -0.0800   -1.7740   -4.8290 hc        1 MOL      0.025266
    125 H59        -1.7620   -1.2600   -5.1050 hc        1 MOL      0.025266
    126 N11         0.4400   -3.0390   -1.3690 n         1 MOL     -0.065359
    127 C39         1.8190   -2.6890   -0.9690 c3        1 MOL      0.230843
    128 C40         2.5790   -1.8440   -2.0830 c         1 MOL      0.126898
    129 O19         2.2730   -1.9060   -3.2810 o         1 MOL     -0.427655
    130 C41         2.7560   -3.8640   -0.5770 c3        1 MOL      0.195718
    131 C42         2.1530   -4.9190    0.3630 c3        1 MOL     -0.289529
    132 O20         3.8850   -3.3910    0.1680 oh        1 MOL     -0.641232
    133 H60        -0.3280   -2.6310   -0.8530 hn        1 MOL      0.051987
    134 H61         1.7740   -2.1500   -0.0230 h1        1 MOL     -0.013439
    135 H62         3.0620   -4.2970   -1.5210 h1        1 MOL      0.058829
    136 H63         3.8120   -3.2710    1.1190 ho        1 MOL      0.393796
    137 H64         1.1790   -5.3000    0.0510 hc        1 MOL      0.071558
    138 H65         2.7840   -5.8010    0.4810 hc        1 MOL      0.071558
    139 H66         2.0790   -4.5820    1.3970 hc        1 MOL      0.071558
    140 N12         3.7090   -1.1960   -1.7190 n         1 MOL     -0.018364
    141 C43         4.6060   -0.4180   -2.5830 c3        1 MOL     -0.174195
    142 C44         4.6330    1.1060   -2.4000 c         1 MOL      0.687400
    143 O21         5.2030    1.7400   -3.2410 o         1 MOL     -0.627597
    144 C45         6.0420   -1.1080   -2.6000 c3        1 MOL     -0.226967
    145 C46         6.1180   -2.6480   -2.9170 c3        1 MOL      0.325389
    146 C47         7.5040   -3.2900   -3.1960 c3        1 MOL     -0.419787
    147 C48         8.2550   -3.4350   -1.9000 c3        1 MOL      0.257571
    148 N13         9.5540   -4.1400   -2.0350 n4        1 MOL     -0.361445
    149 H67         3.8380   -1.2210   -0.7150 hn        1 MOL      0.109239
    150 H68         4.1420   -0.5090   -3.5650 h1        1 MOL      0.114693
    151 H69         6.5210   -0.9730   -1.6290 hc        1 MOL      0.068130
    152 H70         6.6850   -0.6100   -3.3180 hc        1 MOL      0.068130
    153 H71         5.4180   -2.8800   -3.7230 hc        1 MOL     -0.017459
    154 H72         5.6780   -3.1670   -2.0580 hc        1 MOL     -0.017459
    155 H73         8.0360   -2.5510   -3.7940 hc        1 MOL      0.110252
    156 H74         7.3080   -4.2490   -3.6710 hc        1 MOL      0.110252
    157 H75         7.6550   -3.9440   -1.1440 hx        1 MOL      0.034315
    158 H76         8.4310   -2.4100   -1.5550 hx        1 MOL      0.034315
    159 H77         9.9270   -4.2990   -1.1110 hn        1 MOL      0.318876
    160 H78         9.3340   -5.0530   -2.3970 hn        1 MOL      0.318876
    161 H79        10.1950   -3.7960   -2.7360 hn        1 MOL      0.318876
    162 N14         4.1010    1.6260   -1.3630 n         1 MOL     -0.062535
    163 C49         4.2700    3.0630   -1.0380 c3        1 MOL     -0.452292
    164 C50         5.7340    3.3820   -0.6400 c         1 MOL      0.506382
    165 O22         6.2730    2.5720    0.1490 o         1 MOL     -0.541950
    166 C51         3.2600    3.3810    0.0450 c3        1 MOL      0.691104
    167 C52         3.1340    4.9280    0.3430 c3        1 MOL     -0.580571
    168 C53         2.8410    5.8180   -0.8820 c         1 MOL      0.590900
    169 O23         3.7700    6.4720   -1.3360 o         1 MOL     -0.665416
    170 O24         1.6980    5.7960   -1.3550 o         1 MOL     -0.665416
    171 H80         3.6770    1.0180   -0.6790 hn        1 MOL      0.000082
    172 H81         4.0970    3.6950   -1.9060 h1        1 MOL      0.190553
    173 H82         3.6050    2.9570    0.9870 hc        1 MOL     -0.134078
    174 H83         2.2350    3.0090   -0.0930 hc        1 MOL     -0.134078
    175 H84         3.9770    5.3190    0.9170 hc        1 MOL      0.150404
    176 H85         2.3520    4.9620    1.0990 hc        1 MOL      0.150404
    177 N15         6.2770    4.5060   -1.0380 n         1 MOL     -0.407784
    178 C54         7.5740    5.0310   -0.4920 c3        1 MOL      0.097516
    179 H86         7.3720    5.6840    0.3570 h1        1 MOL      0.028477
    180 H87         8.1970    4.1980   -0.1680 h1        1 MOL      0.028477
    181 H88         8.0930    5.5950   -1.2660 h1        1 MOL      0.028477
    182 H89         5.7780    5.1300   -1.6450 hn        1 MOL      0.367145
    183 Ca1        -0.8260    5.4370   -1.7980 Ca        1 MOL      1.497594
    184 O25        -2.9220    5.9840   -3.3370 oh        1 MOL     -0.748226
    185 H90        -3.2340    5.6340   -4.1770 ho        1 MOL      0.375303
    186 H91        -3.4100    6.7900   -3.2140 ho        1 MOL      0.375303
    187 O26        -0.6470    4.1390   -4.2890 oh        1 MOL     -0.748226
    188 H92        -1.2540    3.8900   -4.9850 ho        1 MOL      0.375303
    189 H93        -0.3760    3.3130   -3.8950 ho        1 MOL      0.375303
    190 O27         0.2800    7.1390   -3.7220 oh        1 MOL     -0.748226
    191 H94         0.0850    7.8770   -3.1590 ho        1 MOL      0.375303
    192 H95         1.1770    6.9020   -3.5170 ho        1 MOL      0.375303
@<TRIPOS>BOND
     1    1    2 1   
     2    1    4 1   
     3    1    5 1   
     4    1    6 1   
     5    2    3 2   
     6    2    7 1   
     7    7    8 1   
     8    7   15 1   
     9    8    9 1   
    10    8   11 1   
    11    8   16 1   
    12    9   10 2   
    13    9   19 1   
    14   11   12 1   
    15   11   17 1   
    16   11   18 1   
    17   12   13 1   
    18   12   14 1   
    19   19   20 1   
    20   19   28 1   
    21   20   21 1   
    22   20   23 1   
    23   20   29 1   
    24   21   22 2   
    25   21   41 1   
    26   23   24 1   
    27   23   30 1   
    28   23   31 1   
    29   24   25 1   
    30   24   32 1   
    31   24   33 1   
    32   25   26 1   
    33   25   34 1   
    34   25   35 1   
    35   26   27 1   
    36   26   36 1   
    37   26   37 1   
    38   27   38 1   
    39   27   39 1   
    40   27   40 1   
    41   41   42 1   
    42   41   49 1   
    43   42   43 1   
    44   42   45 1   
    45   42   50 1   
    46   43   44 2   
    47   43   53 1   
    48   45   46 1   
    49   45   51 1   
    50   45   52 1   
    51   46   47 1   
    52   46   48 1   
    53   53   54 1   
    54   53   57 1   
    55   54   55 1   
    56   54   58 1   
    57   54   59 1   
    58   55   56 2   
    59   55   60 1   
    60   60   61 1   
    61   60   68 1   
    62   61   62 1   
    63   61   64 1   
    64   61   69 1   
    65   62   63 2   
    66   62   72 1   
    67   64   65 1   
    68   64   70 1   
    69   64   71 1   
    70   65   66 1   
    71   65   67 1   
    72   72   73 1   
    73   72   76 1   
    74   73   74 1   
    75   73   77 1   
    76   73   78 1   
    77   74   75 2   
    78   74   79 1   
    79   79   80 1   
    80   79   86 1   
    81   80   81 1   
    82   80   83 1   
    83   80   87 1   
    84   81   82 2   
    85   81   93 1   
    86   83   84 1   
    87   83   85 1   
    88   83   88 1   
    89   84   90 1   
    90   84   91 1   
    91   84   92 1   
    92   85   89 1   
    93   93   94 1   
    94   93  101 1   
    95   94   95 1   
    96   94   97 1   
    97   94  102 1   
    98   95   96 2   
    99   95  112 1   
   100   97   98 1   
   101   97   99 1   
   102   97  103 1   
   103   98  100 1   
   104   98  104 1   
   105   98  105 1   
   106   99  106 1   
   107   99  107 1   
   108   99  108 1   
   109  100  109 1   
   110  100  110 1   
   111  100  111 1   
   112  112  113 1   
   113  112  119 1   
   114  113  114 1   
   115  113  116 1   
   116  113  120 1   
   117  114  115 2   
   118  114  126 1   
   119  116  117 1   
   120  116  118 1   
   121  116  121 1   
   122  117  123 1   
   123  117  124 1   
   124  117  125 1   
   125  118  122 1   
   126  126  127 1   
   127  126  133 1   
   128  127  128 1   
   129  127  130 1   
   130  127  134 1   
   131  128  129 2   
   132  128  140 1   
   133  130  131 1   
   134  130  132 1   
   135  130  135 1   
   136  131  137 1   
   137  131  138 1   
   138  131  139 1   
   139  132  136 1   
   140  140  141 1   
   141  140  149 1   
   142  141  142 1   
   143  141  144 1   
   144  141  150 1   
   145  142  143 2   
   146  142  162 1   
   147  144  145 1   
   148  144  151 1   
   149  144  152 1   
   150  145  146 1   
   151  145  153 1   
   152  145  154 1   
   153  146  147 1   
   154  146  155 1   
   155  146  156 1   
   156  147  148 1   
   157  147  157 1   
   158  147  158 1   
   159  148  159 1   
   160  148  160 1   
   161  148  161 1   
   162  162  163 1   
   163  162  171 1   
   164  163  164 1   
   165  163  166 1   
   166  163  172 1   
   167  164  165 2   
   168  164  177 1   
   169  166  167 1   
   170  166  173 1   
   171  166  174 1   
   172  167  168 1   
   173  167  175 1   
   174  167  176 1   
   175  168  169 1   
   176  168  170 1   
   177  177  178 1   
   178  177  182 1   
   179  178  179 1   
   180  178  180 1   
   181  178  181 1   
   182  184  185 1   
   183  184  186 1   
   184  187  188 1   
   185  187  189 1   
   186  190  191 1   
   187  190  192 1   
@<TRIPOS>SUBSTRUCTURE
     1 MOL         1 TEMP              0 ****  ****    0 ROOT
