@<TRIPOS>MOLECULE
MOL
  178   175     1     0     0
SMALL
resp


@<TRIPOS>ATOM
      1 C1         -4.3730   -2.4440   -2.8860 c3        1 MOL     -0.270956
      2 C2         -5.7330   -1.6400   -2.6510 c         1 MOL      0.531220
      3 O1         -5.7760   -0.4450   -2.2070 o         1 MOL     -0.578239
      4 H1         -4.4040   -2.9300   -3.8600 hc        1 MOL      0.086672
      5 H2         -3.5310   -1.7520   -2.8520 hc        1 MOL      0.086672
      6 H3         -4.2570   -3.1970   -2.1080 hc        1 MOL      0.086672
      7 N1         -6.8940   -2.2630   -2.7830 n         1 MOL     -0.447102
      8 C3         -8.2000   -1.5860   -2.6350 c3        1 MOL      0.119641
      9 C4         -8.4630   -1.1350   -1.1620 c         1 MOL      0.547627
     10 O2         -8.3600   -2.0320   -0.2830 o         1 MOL     -0.544246
     11 C5         -9.2350   -2.6230   -2.8940 c3        1 MOL     -0.244315
     12 C6        -10.7300   -2.2540   -2.7590 c         1 MOL      0.715598
     13 O3        -11.5760   -3.1900   -2.6370 o         1 MOL     -0.729352
     14 O4        -11.0730   -1.0200   -2.7920 o         1 MOL     -0.729352
     15 H4         -6.8500   -3.2390   -3.0300 hn        1 MOL      0.281859
     16 H5         -8.3660   -0.7580   -3.3240 h1        1 MOL      0.035626
     17 H6         -9.0790   -3.5330   -2.3180 hc        1 MOL      0.040456
     18 H7         -9.0900   -2.9300   -3.9370 hc        1 MOL      0.040456
     19 N2         -8.8170    0.0830   -0.8620 n         1 MOL     -0.436067
     20 C7         -8.8900    0.4570    0.5600 c3        1 MOL      0.341802
     21 C8         -7.5750    0.3490    1.3360 c         1 MOL      0.334570
     22 O5         -7.5250    0.0690    2.5770 o         1 MOL     -0.515163
     23 C9         -9.6360    1.7690    0.7870 c3        1 MOL     -0.232487
     24 H8         -8.8240    0.7500   -1.6160 hn        1 MOL      0.257359
     25 H9         -9.5680   -0.2330    1.0540 h1        1 MOL      0.053258
     26 H10        -9.1540    2.6260    0.3100 hc        1 MOL      0.050431
     27 H11       -10.6130    1.6200    0.3340 hc        1 MOL      0.050431
     28 H12        -9.8300    1.9730    1.8350 hc        1 MOL      0.050431
     29 N3         -6.3970    0.3130    0.6520 n         1 MOL     -0.559715
     30 C10        -5.1390   -0.2630    1.2740 c3        1 MOL      0.376879
     31 C11        -4.7200    0.3670    2.6370 c         1 MOL      0.366738
     32 O6         -4.2840   -0.2620    3.6010 o         1 MOL     -0.508057
     33 C12        -5.1770   -1.7340    1.2860 c3        1 MOL      0.012607
     34 C13        -3.8460   -2.4670    1.3840 c         1 MOL      0.621125
     35 O7         -3.8080   -3.6890    1.5900 o         1 MOL     -0.722904
     36 O8         -2.7920   -1.8320    1.1910 o         1 MOL     -0.722904
     37 H13        -6.4600    0.2960   -0.3560 hn        1 MOL      0.262819
     38 H14        -4.2950   -0.0430    0.6210 h1        1 MOL     -0.010361
     39 H15        -5.5240   -2.0000    0.2810 hc        1 MOL      0.010923
     40 H16        -5.8180   -2.1280    2.0680 hc        1 MOL      0.010923
     41 N4         -4.8160    1.6810    2.6630 n         1 MOL     -0.257380
     42 C14        -4.6280    2.5340    3.8600 c3        1 MOL     -0.132387
     43 C15        -3.3290    3.2420    4.1660 c         1 MOL      0.411634
     44 O9         -3.3950    3.7240    5.3160 o         1 MOL     -0.541183
     45 H17        -5.2200    2.1760    1.8820 hn        1 MOL      0.213731
     46 H18        -4.9380    1.8990    4.6920 h1        1 MOL      0.115966
     47 H19        -5.3640    3.3330    3.8120 h1        1 MOL      0.115966
     48 N5         -2.2640    3.1350    3.3980 n         1 MOL     -0.252450
     49 C16        -0.9700    3.7960    3.5810 c3        1 MOL      0.160722
     50 C17        -0.4830    4.4940    2.2970 c         1 MOL      0.553065
     51 O10        -0.9680    4.1560    1.2510 o         1 MOL     -0.492224
     52 C18         0.0950    2.8430    4.1300 c3        1 MOL     -0.356461
     53 C19        -0.4260    2.0620    5.3460 c         1 MOL      0.823635
     54 N6         -0.8690    0.8640    5.2150 n         1 MOL     -0.833196
     55 O11        -0.2550    2.5100    6.4690 o         1 MOL     -0.616013
     56 H20        -2.4570    2.7390    2.4850 hn        1 MOL      0.163348
     57 H21        -1.0970    4.5710    4.3330 h1        1 MOL      0.009476
     58 H22         0.9810    3.4220    4.3990 hc        1 MOL      0.083128
     59 H23         0.5080    2.0760    3.4720 hc        1 MOL      0.083128
     60 H24        -1.1060    0.6170    4.2640 hn        1 MOL      0.382584
     61 H25        -1.3240    0.4280    6.0000 hn        1 MOL      0.382584
     62 N7          0.3370    5.4930    2.3680 n         1 MOL     -0.433447
     63 C20         0.3910    6.6490    1.4910 c3        1 MOL     -0.132368
     64 C21         1.3970    6.5660    0.3430 c         1 MOL      0.585204
     65 O12         2.5280    6.0940    0.5480 o         1 MOL     -0.518937
     66 H26         0.7210    5.6060    3.2990 hn        1 MOL      0.310745
     67 H27         0.5960    7.5820    2.0060 h1        1 MOL      0.088205
     68 H28        -0.6150    6.7290    1.0970 h1        1 MOL      0.088205
     69 N8          1.0710    6.9480   -0.8690 n         1 MOL     -0.383484
     70 C22         2.0560    6.9530   -1.9370 c3        1 MOL     -0.306012
     71 C23         2.3400    5.6730   -2.6240 c         1 MOL      0.512517
     72 O13         3.3520    5.5330   -3.3310 o         1 MOL     -0.550239
     73 C24         1.8590    8.1230   -3.0130 c3        1 MOL      0.340147
     74 C25         0.5620    7.8370   -3.8020 c3        1 MOL     -0.264149
     75 O14         1.7590    9.3210   -2.2890 oh        1 MOL     -0.571018
     76 H29         0.1460    7.2890   -1.0840 hn        1 MOL      0.283030
     77 H30         3.0170    7.1330   -1.4620 h1        1 MOL      0.181771
     78 H31         2.7280    8.2990   -3.6530 h1        1 MOL      0.086261
     79 H32         0.9700    9.1760   -1.7690 ho        1 MOL      0.338583
     80 H33         0.6360    6.9120   -4.3730 hc        1 MOL      0.063034
     81 H34        -0.3270    7.8670   -3.1710 hc        1 MOL      0.063034
     82 H35         0.4180    8.6050   -4.5730 hc        1 MOL      0.063034
     83 N9          1.4290    4.6520   -2.3400 n         1 MOL     -0.134236
     84 C26         1.7490    3.3190   -2.7490 c3        1 MOL     -0.057774
     85 C27         1.5850    2.3050   -1.6700 c         1 MOL      0.387417
     86 O15         0.8400    2.4680   -0.7420 o         1 MOL     -0.409305
     87 C28         0.9730    2.8890   -4.0160 c3        1 MOL      0.021728
     88 C29        -0.5210    2.7530   -3.7210 c3        1 MOL      0.193728
     89 C30         1.2290    3.7560   -5.2790 c3        1 MOL     -0.302055
     90 C31        -1.3010    1.8300   -4.5790 c3        1 MOL     -0.030026
     91 H36         0.6380    4.8690   -1.7610 hn        1 MOL      0.158254
     92 H37         2.7800    3.3710   -3.0860 h1        1 MOL      0.093331
     93 H38         1.3880    1.9190   -4.2750 hc        1 MOL      0.005054
     94 H39        -0.9150    3.7740   -3.7890 hc        1 MOL     -0.030635
     95 H40        -0.7210    2.4580   -2.6890 hc        1 MOL     -0.030635
     96 H41         0.6890    3.4450   -6.1750 hc        1 MOL      0.073650
     97 H42         0.7840    4.7240   -5.0580 hc        1 MOL      0.073650
     98 H43         2.2730    3.9860   -5.4630 hc        1 MOL      0.073650
     99 H44        -0.7550    0.8800   -4.6150 hc        1 MOL     -0.000962
    100 H45        -2.3020    1.7100   -4.1800 hc        1 MOL     -0.000962
    101 H46        -1.3830    2.3170   -5.5500 hc        1 MOL     -0.000962
    102 N10         2.2520    1.1590   -1.7190 n         1 MOL     -0.523570
    103 C32         2.1130    0.1250   -0.7560 c3        1 MOL      0.191213
    104 C33         3.4500   -0.4940   -0.2910 c         1 MOL      0.458958
    105 O16         3.5020   -1.6020    0.2860 o         1 MOL     -0.437945
    106 C34         1.1100   -0.7640   -1.4330 c3        1 MOL      0.020556
    107 C35         0.4460   -1.8820   -0.6440 c         1 MOL      0.646925
    108 O17        -0.0500   -2.8700   -1.2790 o         1 MOL     -0.738200
    109 O18         0.2930   -1.8700    0.5820 o         1 MOL     -0.738200
    110 H47         2.9270    0.9920   -2.4590 hn        1 MOL      0.294493
    111 H48         1.6730    0.4590    0.1930 h1        1 MOL      0.054295
    112 H49         1.6380   -1.2810   -2.2200 hc        1 MOL      0.008954
    113 H50         0.3290   -0.2310   -1.9770 hc        1 MOL      0.008954
    114 N11         4.5310    0.3320   -0.4760 n         1 MOL     -0.413010
    115 C36         5.8110    0.0260    0.1490 c3        1 MOL      0.146656
    116 C37         6.4500   -1.2970   -0.3410 c         1 MOL      0.426851
    117 O19         6.5310   -1.5390   -1.5680 o         1 MOL     -0.591972
    118 C38         6.8560    1.1570   -0.1440 c3        1 MOL     -0.244034
    119 C39         8.1010    1.0450    0.7530 ca        1 MOL      0.103727
    120 C40         8.0440    1.6750    1.9620 ca        1 MOL     -0.165659
    121 C41         9.2320    0.3450    0.3900 ca        1 MOL     -0.165659
    122 C42         9.0310    1.5000    2.9720 ca        1 MOL     -0.105011
    123 C43        10.1840    0.0190    1.4230 ca        1 MOL     -0.105011
    124 C44        10.0970    0.5670    2.7150 ca        1 MOL     -0.151487
    125 H51         4.4630    1.1400   -1.0800 hn        1 MOL      0.248663
    126 H52         5.6300    0.0180    1.2270 h1        1 MOL      0.024027
    127 H53         6.4020    2.1290    0.0370 hc        1 MOL      0.104171
    128 H54         7.1560    1.1940   -1.1960 hc        1 MOL      0.104171
    129 H55         7.2040    2.3170    2.1900 ha        1 MOL      0.122553
    130 H56         9.2400   -0.2300   -0.5210 ha        1 MOL      0.122553
    131 H57         8.8660    1.8410    3.9820 ha        1 MOL      0.110305
    132 H58        10.9640   -0.6960    1.2070 ha        1 MOL      0.110305
    133 H59        10.6780    0.2360    3.5600 ha        1 MOL      0.121186
    134 N12         6.6940   -2.2310    0.5560 n         1 MOL     -0.028656
    135 C45         7.3760   -3.5000    0.1400 c3        1 MOL      0.117047
    136 C46         6.5510   -4.4150   -0.7400 c         1 MOL      0.275254
    137 O20         7.0510   -5.3200   -1.3620 o         1 MOL     -0.511070
    138 C47         7.9790   -4.1230    1.4370 c3        1 MOL     -0.198451
    139 C48         6.9030   -3.6400    2.4620 c3        1 MOL      0.024945
    140 C49         6.5090   -2.2150    2.0170 c3        1 MOL     -0.196069
    141 H60         8.2490   -3.1880   -0.4270 h1        1 MOL      0.060265
    142 H61         8.0390   -5.2120    1.4250 hc        1 MOL      0.073100
    143 H62         8.9330   -3.6000    1.5480 hc        1 MOL      0.073100
    144 H63         5.9960   -4.2490    2.4580 hc        1 MOL      0.035102
    145 H64         7.2880   -3.6770    3.4710 hc        1 MOL      0.035102
    146 H65         5.5360   -1.9920    2.4420 h1        1 MOL      0.092887
    147 H66         7.2720   -1.5490    2.4240 h1        1 MOL      0.092887
    148 N13         5.2030   -4.2040   -0.8610 n         1 MOL     -0.034468
    149 C50         4.3380   -4.9390   -1.7520 c3        1 MOL     -0.094618
    150 C51         4.3610   -4.3950   -3.2200 c         1 MOL      0.353967
    151 O21         3.8890   -5.0240   -4.1820 o         1 MOL     -0.511681
    152 C52         2.9080   -4.7740   -1.1180 c3        1 MOL      0.128251
    153 C53         2.9420   -5.5980    0.2300 c3        1 MOL     -0.237220
    154 C54         1.5610   -5.3640    0.8860 c         1 MOL      0.625743
    155 O22         1.3100   -4.6650    1.9220 o         1 MOL     -0.720622
    156 O23         0.5840   -5.8480    0.2870 o         1 MOL     -0.720622
    157 H67         4.8740   -3.3630   -0.3940 hn        1 MOL      0.113793
    158 H68         4.5360   -5.9980   -1.8670 h1        1 MOL      0.111062
    159 H69         2.1670   -5.2050   -1.7920 hc        1 MOL      0.015430
    160 H70         2.6390   -3.7690   -0.8170 hc        1 MOL      0.015430
    161 H71         3.7660   -5.3510    0.9150 hc        1 MOL      0.046650
    162 H72         3.1650   -6.6320   -0.0290 hc        1 MOL      0.046650
    163 N14         4.6360   -3.0520   -3.2700 n         1 MOL     -0.114054
    164 C55         4.5360   -2.3060   -4.5170 c3        1 MOL     -0.212437
    165 H73         4.0010   -2.9040   -5.2560 h1        1 MOL      0.082629
    166 H74         3.9940   -1.3760   -4.3420 h1        1 MOL      0.082629
    167 H75         5.5360   -2.0810   -4.8870 h1        1 MOL      0.082629
    168 H76         4.7380   -2.5740   -2.3880 hn        1 MOL      0.169355
    169 Ca1        -1.0630   -3.9510    1.0930 Ca        1 MOL      1.803111
    170 O24        -0.9340   -2.8880    3.6470 oh        1 MOL     -0.867455
    171 H77        -0.3420   -2.6840    4.3630 ho        1 MOL      0.418214
    172 H78        -1.7220   -2.3620    3.8240 ho        1 MOL      0.418214
    173 O25        -2.6510   -4.9460   -0.6080 oh        1 MOL     -0.867455
    174 H79        -2.5240   -5.4820   -1.3900 ho        1 MOL      0.418214
    175 H80        -3.5530   -5.1280   -0.3340 ho        1 MOL      0.418214
    176 O26        -1.8140   -6.0140    2.5590 oh        1 MOL     -0.867455
    177 H81        -2.5750   -6.1860    3.1210 ho        1 MOL      0.418214
    178 H82        -1.1730   -6.6710    2.8300 ho        1 MOL      0.418214
@<TRIPOS>BOND
     1    1    2 1   
     2    1    4 1   
     3    1    5 1   
     4    1    6 1   
     5    2    3 2   
     6    2    7 1   
     7    7    8 1   
     8    7   15 1   
     9    8    9 1   
    10    8   11 1   
    11    8   16 1   
    12    9   10 2   
    13    9   19 1   
    14   11   12 1   
    15   11   17 1   
    16   11   18 1   
    17   12   13 1   
    18   12   14 1   
    19   19   20 1   
    20   19   24 1   
    21   20   21 1   
    22   20   23 1   
    23   20   25 1   
    24   21   22 2   
    25   21   29 1   
    26   23   26 1   
    27   23   27 1   
    28   23   28 1   
    29   29   30 1   
    30   29   37 1   
    31   30   31 1   
    32   30   33 1   
    33   30   38 1   
    34   31   32 2   
    35   31   41 1   
    36   33   34 1   
    37   33   39 1   
    38   33   40 1   
    39   34   35 1   
    40   34   36 1   
    41   41   42 1   
    42   41   45 1   
    43   42   43 1   
    44   42   46 1   
    45   42   47 1   
    46   43   44 2   
    47   43   48 1   
    48   48   49 1   
    49   48   56 1   
    50   49   50 1   
    51   49   52 1   
    52   49   57 1   
    53   50   51 2   
    54   50   62 1   
    55   52   53 1   
    56   52   58 1   
    57   52   59 1   
    58   53   54 1   
    59   53   55 2   
    60   54   60 1   
    61   54   61 1   
    62   62   63 1   
    63   62   66 1   
    64   63   64 1   
    65   63   67 1   
    66   63   68 1   
    67   64   65 2   
    68   64   69 1   
    69   69   70 1   
    70   69   76 1   
    71   70   71 1   
    72   70   73 1   
    73   70   77 1   
    74   71   72 2   
    75   71   83 1   
    76   73   74 1   
    77   73   75 1   
    78   73   78 1   
    79   74   80 1   
    80   74   81 1   
    81   74   82 1   
    82   75   79 1   
    83   83   84 1   
    84   83   91 1   
    85   84   85 1   
    86   84   87 1   
    87   84   92 1   
    88   85   86 2   
    89   85  102 1   
    90   87   88 1   
    91   87   89 1   
    92   87   93 1   
    93   88   90 1   
    94   88   94 1   
    95   88   95 1   
    96   89   96 1   
    97   89   97 1   
    98   89   98 1   
    99   90   99 1   
   100   90  100 1   
   101   90  101 1   
   102  102  103 1   
   103  102  110 1   
   104  103  104 1   
   105  103  106 1   
   106  103  111 1   
   107  104  105 2   
   108  104  114 1   
   109  106  107 1   
   110  106  112 1   
   111  106  113 1   
   112  107  108 1   
   113  107  109 1   
   114  114  115 1   
   115  114  125 1   
   116  115  116 1   
   117  115  118 1   
   118  115  126 1   
   119  116  117 2   
   120  116  134 1   
   121  118  119 1   
   122  118  127 1   
   123  118  128 1   
   124  119  120 ar  
   125  119  121 ar  
   126  120  122 ar  
   127  120  129 1   
   128  121  123 ar  
   129  121  130 1   
   130  122  124 ar  
   131  122  131 1   
   132  123  124 ar  
   133  123  132 1   
   134  124  133 1   
   135  134  135 1   
   136  134  140 1   
   137  135  136 1   
   138  135  138 1   
   139  135  141 1   
   140  136  137 2   
   141  136  148 1   
   142  138  139 1   
   143  138  142 1   
   144  138  143 1   
   145  139  140 1   
   146  139  144 1   
   147  139  145 1   
   148  140  146 1   
   149  140  147 1   
   150  148  149 1   
   151  148  157 1   
   152  149  150 1   
   153  149  152 1   
   154  149  158 1   
   155  150  151 2   
   156  150  163 1   
   157  152  153 1   
   158  152  159 1   
   159  152  160 1   
   160  153  154 1   
   161  153  161 1   
   162  153  162 1   
   163  154  155 1   
   164  154  156 1   
   165  163  164 1   
   166  163  168 1   
   167  164  165 1   
   168  164  166 1   
   169  164  167 1   
   170  170  171 1   
   171  170  172 1   
   172  173  174 1   
   173  173  175 1   
   174  176  177 1   
   175  176  178 1   
@<TRIPOS>SUBSTRUCTURE
     1 MOL         1 TEMP              0 ****  ****    0 ROOT
