@<TRIPOS>MOLECULE
MOL
  188   182     1     0     0
SMALL
resp


@<TRIPOS>ATOM
      1 C1         -7.2140   -0.7260    3.1770 c3        1 MOL     -0.449332
      2 C2         -7.4860   -0.9300    1.6790 c         1 MOL      0.734143
      3 O1         -6.6710   -0.5900    0.8660 o         1 MOL     -0.539162
      4 H1         -6.3330   -0.0950    3.3030 hc        1 MOL      0.110804
      5 H2         -8.0740   -0.2450    3.6400 hc        1 MOL      0.110804
      6 H3         -7.0390   -1.6920    3.6500 hc        1 MOL      0.110804
      7 N1         -8.6710   -1.3960    1.3240 n         1 MOL     -0.584733
      8 C3         -9.1130   -1.6400   -0.1040 c3        1 MOL      0.051261
      9 C4         -8.8970   -0.4000   -1.0490 c         1 MOL      0.564878
     10 O2         -8.5980   -0.5930   -2.2040 o         1 MOL     -0.497857
     11 C5         -8.4560   -2.9970   -0.6810 c3        1 MOL     -0.202746
     12 C6         -9.0620   -4.2370   -0.1530 c         1 MOL      0.751090
     13 O3         -8.3450   -5.1580    0.2600 o         1 MOL     -0.663319
     14 O4        -10.2800   -4.3910   -0.2690 o         1 MOL     -0.663319
     15 H4         -9.3980   -1.6730    1.9680 hn        1 MOL      0.337222
     16 H5        -10.1520   -1.9530   -0.0350 h1        1 MOL      0.030380
     17 H6         -7.3810   -3.0010   -0.5050 hc        1 MOL      0.077604
     18 H7         -8.6740   -2.9840   -1.7520 hc        1 MOL      0.077604
     19 N2         -8.9880    0.7920   -0.4840 n         1 MOL     -0.484552
     20 C7         -8.8800    2.0370   -1.2450 c3        1 MOL      0.039480
     21 C8         -7.4310    2.4160   -1.5820 c         1 MOL      0.666302
     22 O5         -7.2120    3.3990   -2.2080 o         1 MOL     -0.586942
     23 C9         -9.7000    3.0970   -0.5460 c3        1 MOL      0.024946
     24 C10        -9.1040    3.4040    0.7910 c3        1 MOL      0.175738
     25 C11       -10.0410    4.4650    1.4210 c3        1 MOL     -0.072079
     26 C12        -9.5380    5.0300    2.7830 c3        1 MOL     -0.129994
     27 N3         -9.6890    4.0350    3.8560 n4        1 MOL     -0.284046
     28 H8         -9.2000    0.7660    0.5090 hn        1 MOL      0.231764
     29 H9         -9.3390    1.9490   -2.2440 h1        1 MOL      0.088175
     30 H10       -10.6880    2.6540   -0.4500 hc        1 MOL      0.006945
     31 H11        -9.8030    4.0280   -1.1010 hc        1 MOL      0.006945
     32 H12        -8.1250    3.8390    0.6050 hc        1 MOL     -0.037364
     33 H13        -9.0540    2.5520    1.4680 hc        1 MOL     -0.037364
     34 H14       -11.0270    4.0420    1.6270 hc        1 MOL      0.047445
     35 H15       -10.1620    5.3350    0.7700 hc        1 MOL      0.047445
     36 H16       -10.1870    5.8680    3.0280 hx        1 MOL      0.136416
     37 H17        -8.5710    5.5410    2.7630 hx        1 MOL      0.136416
     38 H18        -9.8950    4.5050    4.7310 hn        1 MOL      0.239761
     39 H19       -10.5410    3.5060    3.7010 hn        1 MOL      0.239761
     40 H20        -8.9160    3.4090    4.0080 hn        1 MOL      0.239761
     41 N4         -6.4970    1.6270   -1.0500 n         1 MOL     -0.607291
     42 C13        -5.0420    1.8240   -1.1500 c3        1 MOL      0.199189
     43 C14        -4.5790    1.4270   -2.5640 c         1 MOL      0.558019
     44 O6         -4.8710    0.2490   -3.0430 o         1 MOL     -0.452449
     45 C15        -4.2730    1.1800   -0.0600 c3        1 MOL      0.051100
     46 C16        -2.7990    1.4990   -0.0230 c         1 MOL      0.448562
     47 O7         -2.0600    1.2390   -1.0430 o         1 MOL     -0.656212
     48 O8         -2.2650    2.0240    1.0220 o         1 MOL     -0.656212
     49 H21        -6.7330    0.7760   -0.5620 hn        1 MOL      0.269112
     50 H22        -4.8810    2.9030   -1.1390 h1        1 MOL     -0.000127
     51 H23        -4.4300    0.1060   -0.0470 hc        1 MOL      0.007691
     52 H24        -4.7080    1.5200    0.8840 hc        1 MOL      0.007691
     53 N5         -3.7500    2.2540   -3.2070 n         1 MOL     -0.430212
     54 C17        -3.1470    2.0530   -4.4990 c3        1 MOL     -0.019871
     55 C18        -2.4160    0.7830   -4.7650 c         1 MOL      0.398788
     56 O9         -2.4580    0.2320   -5.8750 o         1 MOL     -0.525141
     57 H25        -3.5890    3.1290   -2.7260 hn        1 MOL      0.257663
     58 H26        -2.5400    2.9260   -4.7460 h1        1 MOL      0.091404
     59 H27        -3.9000    2.0740   -5.2800 h1        1 MOL      0.091404
     60 N6         -1.7580    0.1420   -3.7680 n         1 MOL     -0.083134
     61 C19        -1.0750   -1.1250   -3.8390 c3        1 MOL      0.082058
     62 C20        -1.7110   -2.1900   -2.8880 c         1 MOL      0.371030
     63 O10        -1.2330   -3.3260   -2.9290 o         1 MOL     -0.516238
     64 C21         0.4640   -1.0340   -3.7600 c3        1 MOL     -0.548778
     65 C22         1.0510    0.0720   -2.9350 c         1 MOL      0.837882
     66 N7          2.1860    0.7000   -3.3690 n         1 MOL     -0.848325
     67 O11         0.5490    0.4330   -1.8090 o         1 MOL     -0.596399
     68 H28        -1.7550    0.5390   -2.8390 hn        1 MOL     -0.035372
     69 H29        -1.3040   -1.5500   -4.8190 h1        1 MOL      0.132571
     70 H30         0.7260   -0.8520   -4.8060 hc        1 MOL      0.185051
     71 H31         0.8800   -1.9950   -3.4930 hc        1 MOL      0.185051
     72 H32         2.5610    0.6170   -4.2950 hn        1 MOL      0.395939
     73 H33         2.5940    1.3360   -2.7100 hn        1 MOL      0.395939
     74 N8         -2.7470   -1.8720   -2.0610 n         1 MOL      0.040304
     75 C23        -3.4360   -2.7890   -1.2450 c3        1 MOL     -0.199088
     76 C24        -2.7400   -2.8530    0.1380 c         1 MOL      0.690901
     77 O12        -3.0180   -3.7500    0.8890 o         1 MOL     -0.544957
     78 H34        -3.0310   -0.9150   -1.9790 hn        1 MOL     -0.038033
     79 H35        -3.4660   -3.7860   -1.6800 h1        1 MOL      0.115583
     80 H36        -4.4360   -2.4200   -1.0140 h1        1 MOL      0.115583
     81 N9         -1.7240   -1.9980    0.3820 n         1 MOL     -0.516103
     82 C25        -1.0830   -1.9890    1.6840 c3        1 MOL      0.020787
     83 C26         0.2850   -1.3250    1.5710 c         1 MOL      0.343161
     84 O13         0.3590   -0.1410    1.2160 o         1 MOL     -0.544162
     85 C27        -1.9360   -1.3240    2.7070 c3        1 MOL     -0.219571
     86 C28        -1.3550   -1.2660    4.1010 ca        1 MOL     -0.021872
     87 C29        -1.1610   -2.4400    4.8080 ca        1 MOL     -0.098830
     88 C30        -0.9200   -0.0490    4.6260 ca        1 MOL     -0.098830
     89 C31        -0.4390   -2.4240    6.0380 ca        1 MOL     -0.313040
     90 C32        -0.1320    0.0220    5.8610 ca        1 MOL     -0.313040
     91 C33         0.0320   -1.1980    6.5370 ca        1 MOL      0.381195
     92 O14         0.6720   -1.1850    7.7360 oh        1 MOL     -0.482059
     93 H37        -1.5660   -1.1680   -0.1810 hn        1 MOL      0.323667
     94 H38        -0.9360   -3.0300    1.9900 h1        1 MOL      0.096934
     95 H39        -2.9510   -1.7380    2.7190 hc        1 MOL      0.141372
     96 H40        -2.2200   -0.3430    2.3260 hc        1 MOL      0.141372
     97 H41        -1.4000   -3.3770    4.3220 ha        1 MOL      0.135536
     98 H42        -1.0990    0.8430    4.0440 ha        1 MOL      0.135536
     99 H43        -0.2280   -3.3260    6.6040 ha        1 MOL      0.167947
    100 H44         0.3680    0.9390    6.1680 ha        1 MOL      0.167947
    101 H45         1.0660   -0.3340    7.9080 ho        1 MOL      0.350359
    102 N10         1.4820   -1.9900    1.7350 n         1 MOL     -0.163156
    103 C34         2.9390   -1.5250    1.6010 c3        1 MOL     -0.088279
    104 C35         3.5170   -1.7750    0.2030 c         1 MOL      0.206981
    105 O15         4.2890   -0.9940   -0.2650 o         1 MOL     -0.418409
    106 C36         3.7310   -2.2040    2.7210 c3        1 MOL      0.179153
    107 C37         3.2260   -2.0030    4.2350 c3        1 MOL     -0.277369
    108 C38         5.1760   -1.7640    2.7240 c3        1 MOL     -0.309004
    109 C39         2.8790   -0.4820    4.6050 c3        1 MOL     -0.123076
    110 H46         1.3330   -2.9070    2.1220 hn        1 MOL      0.206485
    111 H47         2.9810   -0.4620    1.8000 h1        1 MOL      0.191327
    112 H48         3.7090   -3.2920    2.7740 hc        1 MOL     -0.019724
    113 H49         4.0160   -2.3340    4.9040 hc        1 MOL      0.120145
    114 H50         2.2730   -2.5150    4.3720 hc        1 MOL      0.120145
    115 H51         5.0390   -0.6800    2.7050 hc        1 MOL      0.090429
    116 H52         5.7310   -2.1280    3.5890 hc        1 MOL      0.090429
    117 H53         5.7040   -2.1430    1.8410 hc        1 MOL      0.090429
    118 H54         2.8190   -0.3930    5.6870 hc        1 MOL      0.035067
    119 H55         3.6800    0.2340    4.4350 hc        1 MOL      0.035067
    120 H56         1.9580   -0.1380    4.1270 hc        1 MOL      0.035067
    121 N11         3.0940   -2.8920   -0.4230 n         1 MOL     -0.045994
    122 C40         3.3950   -3.1320   -1.8300 c3        1 MOL      0.001270
    123 C41         4.9240   -3.3790   -2.0580 c         1 MOL      0.287740
    124 O16         5.3670   -3.1360   -3.1770 o         1 MOL     -0.479324
    125 C42         2.7990   -4.4690   -2.1680 c3        1 MOL      0.204323
    126 O17         1.4630   -4.6670   -1.5590 oh        1 MOL     -0.609207
    127 H57         2.4650   -3.5420    0.0210 hn        1 MOL      0.130450
    128 H58         2.9700   -2.3660   -2.4730 h1        1 MOL      0.046027
    129 H59         3.4140   -5.3210   -1.9040 h1        1 MOL      0.022808
    130 H60         2.6380   -4.4920   -3.2440 h1        1 MOL      0.022808
    131 H61         1.1760   -5.5640   -1.7550 ho        1 MOL      0.423523
    132 N12         5.6800   -3.8330   -1.0820 n         1 MOL     -0.011358
    133 C43         7.0970   -4.1120   -0.9480 c3        1 MOL      0.006766
    134 C44         7.9980   -2.8950   -1.4380 c         1 MOL      0.584781
    135 O18         8.9990   -3.0460   -2.1720 o         1 MOL     -0.514033
    136 C45         7.3820   -5.5350   -1.4730 c3        1 MOL     -0.360284
    137 H62         5.1280   -3.9920   -0.2550 hn        1 MOL      0.096334
    138 H63         7.1430   -4.1190    0.1390 h1        1 MOL      0.089321
    139 H64         6.8000   -6.2970   -0.9590 hc        1 MOL      0.107546
    140 H65         7.1950   -5.6990   -2.5260 hc        1 MOL      0.107546
    141 H66         8.4150   -5.7850   -1.1960 hc        1 MOL      0.107546
    142 N13         7.6310   -1.6660   -1.0380 n         1 MOL     -0.707422
    143 C46         8.3480   -0.4280   -1.5040 c3        1 MOL      0.448218
    144 C47         8.3810    0.6630   -0.3630 c         1 MOL      0.480477
    145 O19         7.6660    0.5030    0.6040 o         1 MOL     -0.530376
    146 C48         7.5280    0.0770   -2.6780 c3        1 MOL     -0.366031
    147 H67         6.7120   -1.5790   -0.6350 hn        1 MOL      0.298881
    148 H68         9.3030   -0.7230   -1.9290 h1        1 MOL      0.006583
    149 H69         7.8360    1.0580   -3.0280 hc        1 MOL      0.099058
    150 H70         7.5520   -0.6590   -3.4790 hc        1 MOL      0.099058
    151 H71         6.4860    0.1990   -2.3770 hc        1 MOL      0.099058
    152 N14         9.3020    1.6480   -0.5280 n         1 MOL     -0.544547
    153 C49         9.5950    2.7460    0.4580 c3        1 MOL      0.010630
    154 C50        10.1350    2.2010    1.7730 c         1 MOL      0.351053
    155 O20        10.3380    2.9750    2.6950 o         1 MOL     -0.484511
    156 C51         8.3770    3.7600    0.5260 c3        1 MOL      0.080442
    157 C52         8.1800    4.5680   -0.7500 c3        1 MOL     -0.060214
    158 C53         9.3230    5.5410   -1.0840 c         1 MOL      0.607865
    159 O21        10.1830    5.2220   -1.9470 o         1 MOL     -0.646980
    160 O22         9.2870    6.6330   -0.4010 o         1 MOL     -0.646980
    161 H72         9.5890    1.7260   -1.4960 hn        1 MOL      0.288581
    162 H73        10.4610    3.2930    0.0930 h1        1 MOL      0.136992
    163 H74         8.4950    4.4730    1.3340 hc        1 MOL      0.014528
    164 H75         7.4540    3.2390    0.7670 hc        1 MOL      0.014528
    165 H76         7.2140    5.0530   -0.5590 hc        1 MOL     -0.039857
    166 H77         7.9730    3.9140   -1.5990 hc        1 MOL     -0.039857
    167 N15        10.4500    0.8600    1.7820 n         1 MOL     -0.117035
    168 C54        10.7870    0.0600    2.9540 c3        1 MOL     -0.129961
    169 H78        11.1270    0.7160    3.7560 h1        1 MOL      0.070918
    170 H79         9.9070   -0.4900    3.2850 h1        1 MOL      0.070918
    171 H80        11.5810   -0.6420    2.6990 h1        1 MOL      0.070918
    172 H81        10.5840    0.5780    0.8250 hn        1 MOL      0.143178
    173 Ca1         0.2000    2.1910   -0.0020 Ca        1 MOL      1.745975
    174 O23         0.5020    3.1190    2.5680 oh        1 MOL     -0.825284
    175 H82        -0.0370    3.1710    3.3650 ho        1 MOL      0.406197
    176 H83         1.2540    3.6810    2.7570 ho        1 MOL      0.406197
    177 O24         2.7610    1.9300    0.8330 oh        1 MOL     -0.825284
    178 H84         3.4460    1.6770    0.2060 ho        1 MOL      0.406197
    179 H85         3.1630    1.7980    1.6870 ho        1 MOL      0.406197
    180 O25        -0.6150    3.2980   -2.3980 oh        1 MOL     -0.825284
    181 H86        -1.4620    3.7480   -2.3940 ho        1 MOL      0.406197
    182 H87        -0.0810    3.8010   -3.0090 ho        1 MOL      0.406197
    183 O26         0.1510    4.8310    0.2530 oh        1 MOL     -0.825284
    184 H88         0.0840    5.4530    0.9840 ho        1 MOL      0.406197
    185 H89         0.3970    5.3630   -0.4930 ho        1 MOL      0.406197
    186 O27         2.1550    3.1480   -1.6790 oh        1 MOL     -0.825284
    187 H90         1.8000    3.7930   -2.2870 ho        1 MOL      0.406197
    188 H91         2.8790    3.5930   -1.2490 ho        1 MOL      0.406197
@<TRIPOS>BOND
     1    1    2 1   
     2    1    4 1   
     3    1    5 1   
     4    1    6 1   
     5    2    3 2   
     6    2    7 1   
     7    7    8 1   
     8    7   15 1   
     9    8    9 1   
    10    8   11 1   
    11    8   16 1   
    12    9   10 2   
    13    9   19 1   
    14   11   12 1   
    15   11   17 1   
    16   11   18 1   
    17   12   13 1   
    18   12   14 1   
    19   19   20 1   
    20   19   28 1   
    21   20   21 1   
    22   20   23 1   
    23   20   29 1   
    24   21   22 2   
    25   21   41 1   
    26   23   24 1   
    27   23   30 1   
    28   23   31 1   
    29   24   25 1   
    30   24   32 1   
    31   24   33 1   
    32   25   26 1   
    33   25   34 1   
    34   25   35 1   
    35   26   27 1   
    36   26   36 1   
    37   26   37 1   
    38   27   38 1   
    39   27   39 1   
    40   27   40 1   
    41   41   42 1   
    42   41   49 1   
    43   42   43 1   
    44   42   45 1   
    45   42   50 1   
    46   43   44 2   
    47   43   53 1   
    48   45   46 1   
    49   45   51 1   
    50   45   52 1   
    51   46   47 1   
    52   46   48 1   
    53   53   54 1   
    54   53   57 1   
    55   54   55 1   
    56   54   58 1   
    57   54   59 1   
    58   55   56 2   
    59   55   60 1   
    60   60   61 1   
    61   60   68 1   
    62   61   62 1   
    63   61   64 1   
    64   61   69 1   
    65   62   63 2   
    66   62   74 1   
    67   64   65 1   
    68   64   70 1   
    69   64   71 1   
    70   65   66 1   
    71   65   67 2   
    72   66   72 1   
    73   66   73 1   
    74   74   75 1   
    75   74   78 1   
    76   75   76 1   
    77   75   79 1   
    78   75   80 1   
    79   76   77 2   
    80   76   81 1   
    81   81   82 1   
    82   81   93 1   
    83   82   83 1   
    84   82   85 1   
    85   82   94 1   
    86   83   84 2   
    87   83  102 1   
    88   85   86 1   
    89   85   95 1   
    90   85   96 1   
    91   86   87 ar  
    92   86   88 ar  
    93   87   89 ar  
    94   87   97 1   
    95   88   90 ar  
    96   88   98 1   
    97   89   91 ar  
    98   89   99 1   
    99   90   91 ar  
   100   90  100 1   
   101   91   92 1   
   102   92  101 1   
   103  102  103 1   
   104  102  110 1   
   105  103  104 1   
   106  103  106 1   
   107  103  111 1   
   108  104  105 2   
   109  104  121 1   
   110  106  107 1   
   111  106  108 1   
   112  106  112 1   
   113  107  109 1   
   114  107  113 1   
   115  107  114 1   
   116  108  115 1   
   117  108  116 1   
   118  108  117 1   
   119  109  118 1   
   120  109  119 1   
   121  109  120 1   
   122  121  122 1   
   123  121  127 1   
   124  122  123 1   
   125  122  125 1   
   126  122  128 1   
   127  123  124 2   
   128  123  132 1   
   129  125  126 1   
   130  125  129 1   
   131  125  130 1   
   132  126  131 1   
   133  132  133 1   
   134  132  137 1   
   135  133  134 1   
   136  133  136 1   
   137  133  138 1   
   138  134  135 2   
   139  134  142 1   
   140  136  139 1   
   141  136  140 1   
   142  136  141 1   
   143  142  143 1   
   144  142  147 1   
   145  143  144 1   
   146  143  146 1   
   147  143  148 1   
   148  144  145 2   
   149  144  152 1   
   150  146  149 1   
   151  146  150 1   
   152  146  151 1   
   153  152  153 1   
   154  152  161 1   
   155  153  154 1   
   156  153  156 1   
   157  153  162 1   
   158  154  155 2   
   159  154  167 1   
   160  156  157 1   
   161  156  163 1   
   162  156  164 1   
   163  157  158 1   
   164  157  165 1   
   165  157  166 1   
   166  158  159 1   
   167  158  160 1   
   168  167  168 1   
   169  167  172 1   
   170  168  169 1   
   171  168  170 1   
   172  168  171 1   
   173  174  175 1   
   174  174  176 1   
   175  177  178 1   
   176  177  179 1   
   177  180  181 1   
   178  180  182 1   
   179  183  184 1   
   180  183  185 1   
   181  186  187 1   
   182  186  188 1   
@<TRIPOS>SUBSTRUCTURE
     1 MOL         1 TEMP              0 ****  ****    0 ROOT
