@<TRIPOS>MOLECULE
MOL
  204   195     1     0     0
SMALL
resp


@<TRIPOS>ATOM
      1 C1          9.2240    6.5660   -4.9650 c3        1 MOL     -0.369386
      2 C2          8.7360    5.7460   -3.6750 c         1 MOL      0.687489
      3 O1          9.1650    4.6390   -3.4190 o         1 MOL     -0.598303
      4 H1         10.3000    6.7240   -4.9080 hc        1 MOL      0.093202
      5 H2          8.9870    6.0010   -5.8660 hc        1 MOL      0.093202
      6 H3          8.7160    7.5300   -4.9960 hc        1 MOL      0.093202
      7 N1          7.9560    6.4260   -2.8070 n         1 MOL     -0.494265
      8 C3          7.7090    5.9180   -1.4660 c3        1 MOL      0.072883
      9 C4          6.6990    4.7700   -1.5020 c         1 MOL      0.637546
     10 O2          5.7810    4.8000   -2.3800 o         1 MOL     -0.537734
     11 C5          7.3280    7.1120   -0.5730 c3        1 MOL     -0.286348
     12 C6          6.0890    7.8550   -1.0960 c         1 MOL      0.780324
     13 O3          4.9900    7.6490   -0.5920 o         1 MOL     -0.655666
     14 O4          6.2200    8.7570   -1.9540 o         1 MOL     -0.655666
     15 H4          7.5110    7.2560   -3.1490 hn        1 MOL      0.278977
     16 H5          8.6270    5.4460   -1.1040 h1        1 MOL      0.057942
     17 H6          8.1170    7.8630   -0.5430 hc        1 MOL      0.063546
     18 H7          7.2110    6.8460    0.4690 hc        1 MOL      0.063546
     19 N2          6.8590    3.7570   -0.6340 n         1 MOL     -0.669822
     20 C7          6.1810    2.4760   -0.6210 c3        1 MOL      0.262728
     21 C8          5.2230    2.2970    0.5670 c         1 MOL      0.626137
     22 O5          5.6010    2.2850    1.7790 o         1 MOL     -0.565078
     23 C9          7.2160    1.3150   -0.7420 c3        1 MOL     -0.180185
     24 C10         6.6760   -0.0490   -1.0770 c3        1 MOL     -0.210333
     25 C11         7.8950   -0.9920   -1.3430 c3        1 MOL      0.290618
     26 C12         7.4770   -2.1160   -2.2560 c3        1 MOL     -0.210337
     27 N3          7.0970   -3.3950   -1.5570 n4        1 MOL     -0.416373
     28 H8          7.4740    3.9460    0.1540 hn        1 MOL      0.313101
     29 H9          5.5510    2.4430   -1.5110 h1        1 MOL      0.050701
     30 H10         7.8290    1.1860    0.1470 hc        1 MOL      0.077317
     31 H11         7.8780    1.5300   -1.5840 hc        1 MOL      0.077317
     32 H12         6.1500    0.0730   -2.0140 hc        1 MOL      0.061219
     33 H13         6.0690   -0.3980   -0.2500 hc        1 MOL      0.061219
     34 H14         8.3590   -1.4150   -0.4390 hc        1 MOL     -0.021445
     35 H15         8.7070   -0.3760   -1.7300 hc        1 MOL     -0.021445
     36 H16         8.4490   -2.3260   -2.7150 hx        1 MOL      0.124479
     37 H17         6.7670   -1.7560   -3.0000 hx        1 MOL      0.124479
     38 H18         6.1800   -3.2710   -1.1490 hn        1 MOL      0.347305
     39 H19         7.3070   -4.1190   -2.2290 hn        1 MOL      0.347305
     40 H20         7.8020   -3.5240   -0.8430 hn        1 MOL      0.347305
     41 N4          3.9380    2.0880    0.2550 n         1 MOL     -0.702741
     42 C13         2.8370    1.6880    1.0880 c3        1 MOL      0.905919
     43 C14         2.2280    0.3400    0.5970 c         1 MOL      0.474554
     44 O6          1.2640    0.3550   -0.0730 o         1 MOL     -0.530542
     45 C15         1.7950    2.7790    1.1590 c3        1 MOL     -0.560463
     46 C16         0.6280    2.5650    2.1180 c         1 MOL      0.883665
     47 O7          0.8120    1.8480    3.1080 o         1 MOL     -0.774470
     48 O8         -0.4640    3.1180    1.8380 o         1 MOL     -0.774470
     49 H21         3.7280    1.9390   -0.7190 hn        1 MOL      0.243515
     50 H22         3.2880    1.5540    2.0810 h1        1 MOL     -0.110044
     51 H23         1.4050    2.9080    0.1430 hc        1 MOL      0.090523
     52 H24         2.4060    3.6070    1.5170 hc        1 MOL      0.090523
     53 N5          2.8520   -0.8080    0.8380 n         1 MOL     -0.508739
     54 C17         3.9880   -0.9540    1.7890 c3        1 MOL     -0.238422
     55 C18         4.8290   -2.2310    1.5630 c         1 MOL      0.621236
     56 O9          5.0140   -2.6630    0.4180 o         1 MOL     -0.614713
     57 H25         2.5420   -1.5610    0.2330 hn        1 MOL      0.290683
     58 H26         3.6230   -1.0010    2.8110 h1        1 MOL      0.126542
     59 H27         4.6540   -0.0940    1.7340 h1        1 MOL      0.126542
     60 N6          5.4350   -2.7630    2.5960 n         1 MOL     -0.221052
     61 C19         6.2240   -4.0220    2.5140 c3        1 MOL     -0.090156
     62 C20         5.3780   -5.3100    2.4450 c         1 MOL      0.276093
     63 O10         5.9180   -6.4250    2.1870 o         1 MOL     -0.491041
     64 C21         7.1700   -4.1790    3.6800 c3        1 MOL     -0.084786
     65 C22         6.3630   -4.0860    5.0310 c         1 MOL      0.607968
     66 O11         6.1220   -5.1450    5.6580 o         1 MOL     -0.651909
     67 O12         5.9140   -2.9760    5.3200 o         1 MOL     -0.651909
     68 H28         5.3320   -2.3550    3.5070 hn        1 MOL      0.166631
     69 H29         6.7970   -3.9630    1.5920 h1        1 MOL      0.054685
     70 H30         7.8900   -3.3770    3.5380 hc        1 MOL      0.034686
     71 H31         7.8150   -5.0560    3.6730 hc        1 MOL      0.034686
     72 N7          4.0560   -5.2860    2.6410 n         1 MOL      0.065802
     73 C23         3.0380   -6.3770    2.6040 c3        1 MOL     -0.358982
     74 C24         2.4270   -6.5210    1.2680 c         1 MOL      0.620665
     75 O13         1.6890   -7.4460    0.9890 o         1 MOL     -0.578934
     76 H32         3.6860   -4.4180    3.0040 hn        1 MOL      0.164971
     77 H33         2.2100   -6.0620    3.2270 h1        1 MOL      0.162108
     78 H34         3.5140   -7.3050    2.9280 h1        1 MOL      0.162108
     79 N8          2.7320   -5.6250    0.3500 n         1 MOL     -0.214377
     80 C25         2.2090   -5.6660   -1.0130 c3        1 MOL     -0.007685
     81 C26         1.7630   -4.2530   -1.3790 c         1 MOL      0.363483
     82 O14         2.1790   -3.3090   -0.7280 o         1 MOL     -0.473448
     83 C27         3.3010   -6.2250   -2.0330 c3        1 MOL      0.270319
     84 C28         4.6420   -5.4750   -1.9820 c3        1 MOL     -0.505985
     85 O15         3.6670   -7.5220   -1.5200 oh        1 MOL     -0.522015
     86 H35         3.2980   -4.8050    0.5050 hn        1 MOL      0.113181
     87 H36         1.2960   -6.2440   -1.1480 h1        1 MOL      0.040348
     88 H37         2.8960   -6.3740   -3.0280 h1        1 MOL      0.020468
     89 H38         2.8570   -8.0190   -1.6310 ho        1 MOL      0.353654
     90 H39         4.5050   -4.3950   -2.0510 hc        1 MOL      0.143960
     91 H40         5.0250   -5.5800   -0.9670 hc        1 MOL      0.143960
     92 H41         5.3240   -5.9400   -2.6910 hc        1 MOL      0.143960
     93 N9          0.9320   -4.1080   -2.4260 n         1 MOL      0.042847
     94 C29         0.4090   -2.8280   -2.9630 c3        1 MOL     -0.303438
     95 C30        -0.7440   -2.2700   -2.0620 c         1 MOL      0.521024
     96 O16        -0.9890   -1.0740   -1.9580 o         1 MOL     -0.489671
     97 C31         0.0830   -2.9740   -4.4400 c3        1 MOL      0.419841
     98 C32         0.9460   -3.9470   -5.2620 c3        1 MOL     -0.196917
     99 C33        -0.1850   -1.6030   -5.1350 c3        1 MOL     -0.418203
    100 C34         2.3640   -3.4110   -5.4010 c3        1 MOL     -0.015794
    101 H42         0.5720   -4.9410   -2.8650 hn        1 MOL      0.130561
    102 H43         1.2610   -2.1520   -2.8630 h1        1 MOL      0.116631
    103 H44        -0.8760   -3.4810   -4.3670 hc        1 MOL     -0.095937
    104 H45         0.4820   -3.8650   -6.2490 hc        1 MOL      0.046941
    105 H46         0.9930   -4.9680   -4.8900 hc        1 MOL      0.046941
    106 H47        -1.2240   -1.2840   -5.0530 hc        1 MOL      0.118560
    107 H48         0.4820   -0.8440   -4.7210 hc        1 MOL      0.118560
    108 H49        -0.0550   -1.7060   -6.2160 hc        1 MOL      0.118560
    109 H50         2.3500   -2.3970   -5.7840 hc        1 MOL      0.001568
    110 H51         2.8140   -3.4760   -4.4080 hc        1 MOL      0.001568
    111 H52         3.0000   -4.1070   -5.9490 hc        1 MOL      0.001568
    112 N10        -1.4260   -3.2300   -1.3830 n         1 MOL     -0.354127
    113 C35        -2.5650   -3.0410   -0.4290 c3        1 MOL     -0.144058
    114 C36        -3.8750   -3.7250   -1.0040 c         1 MOL      0.778877
    115 O17        -3.7680   -4.7210   -1.7130 o         1 MOL     -0.588654
    116 C37        -2.1380   -3.4620    0.9470 c3        1 MOL      0.384272
    117 C38        -1.9380   -4.9100    1.1950 c3        1 MOL     -0.113291
    118 O18        -1.0800   -2.7380    1.3890 oh        1 MOL     -0.595562
    119 H53        -1.0050   -4.1430   -1.3700 hn        1 MOL      0.188926
    120 H54        -2.8420   -1.9900   -0.4130 h1        1 MOL      0.059765
    121 H55        -2.9450   -3.2100    1.6370 h1        1 MOL     -0.057047
    122 H56        -1.2060   -1.8270    1.1370 ho        1 MOL      0.426923
    123 H57        -1.6360   -5.0030    2.2370 hc        1 MOL      0.033377
    124 H58        -2.9180   -5.3840    1.1160 hc        1 MOL      0.033377
    125 H59        -1.1700   -5.4270    0.6100 hc        1 MOL      0.033377
    126 N11        -5.0370   -3.2500   -0.6930 n         1 MOL     -0.638396
    127 C39        -6.3790   -3.7250   -1.2010 c3        1 MOL      0.061740
    128 C40        -7.3070   -2.6060   -1.5520 c         1 MOL      0.536180
    129 O19        -8.1110   -2.5470   -2.5040 o         1 MOL     -0.569974
    130 C41        -6.9640   -4.6730   -0.1990 c3        1 MOL      0.248835
    131 C42        -8.4540   -5.0720   -0.4310 c3        1 MOL     -0.479357
    132 O20        -6.8850   -4.1360    1.1220 oh        1 MOL     -0.639021
    133 H60        -5.1220   -2.6110    0.0840 hn        1 MOL      0.301453
    134 H61        -6.2770   -4.2780   -2.1340 h1        1 MOL      0.120020
    135 H62        -6.3680   -5.5800   -0.2810 h1        1 MOL      0.066480
    136 H63        -6.8950   -4.8310    1.7790 ho        1 MOL      0.424507
    137 H64        -8.6830   -5.9410    0.1890 hc        1 MOL      0.130174
    138 H65        -9.1080   -4.2510   -0.1470 hc        1 MOL      0.130174
    139 H66        -8.5340   -5.3770   -1.4760 hc        1 MOL      0.130174
    140 N12        -7.1380   -1.5350   -0.7430 n         1 MOL     -0.295711
    141 C43        -7.8180   -0.2240   -0.8700 c3        1 MOL     -0.054647
    142 C44        -7.0640    0.8930   -0.1570 c         1 MOL      0.579563
    143 O21        -6.5530    0.6380    0.9570 o         1 MOL     -0.511819
    144 C45        -9.1840   -0.2450   -0.3380 c3        1 MOL     -0.091907
    145 C46       -10.2400   -1.2350   -0.9480 c3        1 MOL     -0.097687
    146 C47       -11.6770   -0.8690   -0.5100 c3        1 MOL      0.004881
    147 C48       -12.5030   -1.8880   -1.1740 c3        1 MOL      0.183315
    148 N13       -13.9120   -1.6560   -0.9670 n4        1 MOL     -0.279876
    149 H67        -6.4680   -1.6760   -0.0040 hn        1 MOL      0.219829
    150 H68        -7.9170    0.0300   -1.9270 h1        1 MOL      0.094660
    151 H69        -9.6560    0.7240   -0.5340 hc        1 MOL      0.053942
    152 H70        -9.1120   -0.3610    0.7440 hc        1 MOL      0.053942
    153 H71       -10.0240   -2.2490   -0.6150 hc        1 MOL      0.096067
    154 H72       -10.2290   -1.1070   -2.0350 hc        1 MOL      0.096067
    155 H73       -11.9550    0.1290   -0.8420 hc        1 MOL      0.009211
    156 H74       -11.8560   -0.9390    0.5670 hc        1 MOL      0.009211
    157 H75       -12.1280   -2.8500   -0.8320 hx        1 MOL      0.012222
    158 H76       -12.3050   -1.8580   -2.2420 hx        1 MOL      0.012222
    159 H77       -14.1220   -0.7160   -1.2710 hn        1 MOL      0.229319
    160 H78       -14.4520   -2.2640   -1.5680 hn        1 MOL      0.229319
    161 H79       -14.1150   -1.8470    0.0000 hn        1 MOL      0.229319
    162 N14        -6.9800    2.1670   -0.6520 n         1 MOL     -0.699539
    163 C49        -6.2160    3.3470   -0.0720 c3        1 MOL      0.613084
    164 C50        -4.7980    2.9380    0.1910 c         1 MOL      0.170645
    165 O22        -4.3010    3.0930    1.2880 o         1 MOL     -0.555468
    166 C51        -6.3210    4.5550   -0.9560 c3        1 MOL     -0.229734
    167 C52        -7.5360    5.4290   -0.7180 c3        1 MOL     -0.312274
    168 C53        -7.4750    6.6890   -1.5420 c         1 MOL      0.765168
    169 O23        -8.1580    6.8110   -2.6240 o         1 MOL     -0.694361
    170 O24        -6.8160    7.6720   -1.1790 o         1 MOL     -0.694361
    171 H80        -7.6140    2.3360   -1.4150 hn        1 MOL      0.344470
    172 H81        -6.6760    3.6400    0.8730 h1        1 MOL     -0.018582
    173 H82        -6.2010    4.3710   -2.0240 hc        1 MOL      0.083773
    174 H83        -5.4350    5.1450   -0.7100 hc        1 MOL      0.083773
    175 H84        -7.6680    5.6470    0.3410 hc        1 MOL      0.048770
    176 H85        -8.3920    4.8610   -1.0890 hc        1 MOL      0.048770
    177 N15        -3.9600    2.4830   -0.7570 n         1 MOL     -0.233476
    178 C54        -4.3290    2.1530   -2.1380 c3        1 MOL     -0.115892
    179 H86        -3.4950    2.3840   -2.8000 h1        1 MOL      0.073016
    180 H87        -4.5650    1.0920   -2.2080 h1        1 MOL      0.073016
    181 H88        -5.1990    2.7400   -2.4310 h1        1 MOL      0.073016
    182 H89        -3.0000    2.3170   -0.4780 hn        1 MOL      0.291008
    183 Ca1        -2.3300    4.1590    3.0930 Ca        1 MOL      1.809337
    184 O25        -0.6460    2.8910    4.9310 oh        1 MOL     -0.870321
    185 H90        -0.0420    2.9350    5.6770 ho        1 MOL      0.431502
    186 H91        -0.1440    2.4370    4.2540 ho        1 MOL      0.431502
    187 O26        -4.4740    3.7460    4.9540 oh        1 MOL     -0.870321
    188 H92        -4.4700    4.2870    5.7410 ho        1 MOL      0.431502
    189 H93        -5.1360    3.0830    5.1220 ho        1 MOL      0.431502
    190 O27        -2.6230    5.8780    5.3790 oh        1 MOL     -0.870321
    191 H94        -2.0100    6.1990    6.0390 ho        1 MOL      0.431502
    192 H95        -3.4190    6.3760    5.5350 ho        1 MOL      0.431502
    193 O28        -4.3250    5.9520    2.5840 oh        1 MOL     -0.870321
    194 H96        -4.4640    6.4510    1.7860 ho        1 MOL      0.431502
    195 H97        -5.2070    5.8040    2.9340 ho        1 MOL      0.431502
    196 O29        -0.5110    6.1670    3.0100 oh        1 MOL     -0.870321
    197 H98        -0.9800    6.9040    2.6170 ho        1 MOL      0.431502
    198 H99         0.4040    6.2870    2.7360 ho        1 MOL      0.431502
    199 O30        -2.1910    5.2620    0.7420 oh        1 MOL     -0.870321
    200 H100       -1.2570    5.2610    0.5270 ho        1 MOL      0.431502
    201 H101       -2.5020    6.1150    0.4560 ho        1 MOL      0.431502
    202 O31        -2.7730    1.4630    3.1370 oh        1 MOL     -0.870321
    203 H102       -3.6940    1.2620    3.2760 ho        1 MOL      0.431502
    204 H103       -2.4530    0.7670    2.5550 ho        1 MOL      0.431502
@<TRIPOS>BOND
     1    1    2 1   
     2    1    4 1   
     3    1    5 1   
     4    1    6 1   
     5    2    3 2   
     6    2    7 1   
     7    7    8 1   
     8    7   15 1   
     9    8    9 1   
    10    8   11 1   
    11    8   16 1   
    12    9   10 2   
    13    9   19 1   
    14   11   12 1   
    15   11   17 1   
    16   11   18 1   
    17   12   13 1   
    18   12   14 1   
    19   19   20 1   
    20   19   28 1   
    21   20   21 1   
    22   20   23 1   
    23   20   29 1   
    24   21   22 2   
    25   21   41 1   
    26   23   24 1   
    27   23   30 1   
    28   23   31 1   
    29   24   25 1   
    30   24   32 1   
    31   24   33 1   
    32   25   26 1   
    33   25   34 1   
    34   25   35 1   
    35   26   27 1   
    36   26   36 1   
    37   26   37 1   
    38   27   38 1   
    39   27   39 1   
    40   27   40 1   
    41   41   42 1   
    42   41   49 1   
    43   42   43 1   
    44   42   45 1   
    45   42   50 1   
    46   43   44 2   
    47   43   53 1   
    48   45   46 1   
    49   45   51 1   
    50   45   52 1   
    51   46   47 1   
    52   46   48 1   
    53   53   54 1   
    54   53   57 1   
    55   54   55 1   
    56   54   58 1   
    57   54   59 1   
    58   55   56 2   
    59   55   60 1   
    60   60   61 1   
    61   60   68 1   
    62   61   62 1   
    63   61   64 1   
    64   61   69 1   
    65   62   63 2   
    66   62   72 1   
    67   64   65 1   
    68   64   70 1   
    69   64   71 1   
    70   65   66 1   
    71   65   67 1   
    72   72   73 1   
    73   72   76 1   
    74   73   74 1   
    75   73   77 1   
    76   73   78 1   
    77   74   75 2   
    78   74   79 1   
    79   79   80 1   
    80   79   86 1   
    81   80   81 1   
    82   80   83 1   
    83   80   87 1   
    84   81   82 2   
    85   81   93 1   
    86   83   84 1   
    87   83   85 1   
    88   83   88 1   
    89   84   90 1   
    90   84   91 1   
    91   84   92 1   
    92   85   89 1   
    93   93   94 1   
    94   93  101 1   
    95   94   95 1   
    96   94   97 1   
    97   94  102 1   
    98   95   96 2   
    99   95  112 1   
   100   97   98 1   
   101   97   99 1   
   102   97  103 1   
   103   98  100 1   
   104   98  104 1   
   105   98  105 1   
   106   99  106 1   
   107   99  107 1   
   108   99  108 1   
   109  100  109 1   
   110  100  110 1   
   111  100  111 1   
   112  112  113 1   
   113  112  119 1   
   114  113  114 1   
   115  113  116 1   
   116  113  120 1   
   117  114  115 2   
   118  114  126 1   
   119  116  117 1   
   120  116  118 1   
   121  116  121 1   
   122  117  123 1   
   123  117  124 1   
   124  117  125 1   
   125  118  122 1   
   126  126  127 1   
   127  126  133 1   
   128  127  128 1   
   129  127  130 1   
   130  127  134 1   
   131  128  129 2   
   132  128  140 1   
   133  130  131 1   
   134  130  132 1   
   135  130  135 1   
   136  131  137 1   
   137  131  138 1   
   138  131  139 1   
   139  132  136 1   
   140  140  141 1   
   141  140  149 1   
   142  141  142 1   
   143  141  144 1   
   144  141  150 1   
   145  142  143 2   
   146  142  162 1   
   147  144  145 1   
   148  144  151 1   
   149  144  152 1   
   150  145  146 1   
   151  145  153 1   
   152  145  154 1   
   153  146  147 1   
   154  146  155 1   
   155  146  156 1   
   156  147  148 1   
   157  147  157 1   
   158  147  158 1   
   159  148  159 1   
   160  148  160 1   
   161  148  161 1   
   162  162  163 1   
   163  162  171 1   
   164  163  164 1   
   165  163  166 1   
   166  163  172 1   
   167  164  165 2   
   168  164  177 1   
   169  166  167 1   
   170  166  173 1   
   171  166  174 1   
   172  167  168 1   
   173  167  175 1   
   174  167  176 1   
   175  168  169 1   
   176  168  170 1   
   177  177  178 1   
   178  177  182 1   
   179  178  179 1   
   180  178  180 1   
   181  178  181 1   
   182  184  185 1   
   183  184  186 1   
   184  187  188 1   
   185  187  189 1   
   186  190  191 1   
   187  190  192 1   
   188  193  194 1   
   189  193  195 1   
   190  196  197 1   
   191  196  198 1   
   192  199  200 1   
   193  199  201 1   
   194  202  203 1   
   195  202  204 1   
@<TRIPOS>SUBSTRUCTURE
     1 MOL         1 TEMP              0 ****  ****    0 ROOT
