@<TRIPOS>MOLECULE
MOL
  195   189     1     0     0
SMALL
resp


@<TRIPOS>ATOM
      1 C1         13.1690    3.2630   -3.5650 c3        1 MOL     -0.363421
      2 C2         12.4170    2.1160   -2.7620 c         1 MOL      0.516481
      3 O1         12.2040    0.9700   -3.2040 o         1 MOL     -0.567919
      4 H1         12.8060    4.2350   -3.2340 hc        1 MOL      0.105912
      5 H2         14.2410    3.1930   -3.3810 hc        1 MOL      0.105912
      6 H3         12.9750    3.1470   -4.6310 hc        1 MOL      0.105912
      7 N1         12.1020    2.3950   -1.4580 n         1 MOL     -0.272599
      8 C3         11.3130    1.6050   -0.4880 c3        1 MOL     -0.134793
      9 C4          9.8080    1.3810   -0.8270 c         1 MOL      0.739145
     10 O2          9.0480    2.3490   -0.7190 o         1 MOL     -0.706786
     11 C5         11.4470    2.1960    0.9260 c3        1 MOL     -0.320578
     12 C6         11.3330    3.7370    0.9250 c         1 MOL      0.739791
     13 O3         10.2300    4.2490    1.2710 o         1 MOL     -0.694458
     14 O4         12.3250    4.3820    0.5990 o         1 MOL     -0.694458
     15 H4         12.3330    3.3060   -1.1000 hn        1 MOL      0.235574
     16 H5         11.6220    0.5600   -0.4780 h1        1 MOL      0.073973
     17 H6         12.3600    1.8740    1.4390 hc        1 MOL      0.138321
     18 H7         10.5650    1.7710    1.4070 hc        1 MOL      0.138321
     19 N2          9.4030    0.1110   -1.0480 n         1 MOL     -0.499972
     20 C7          8.0170   -0.3630   -1.2940 c3        1 MOL     -0.095899
     21 C8          7.3170   -0.3850    0.0960 c         1 MOL      0.733365
     22 O5          7.9140   -0.7880    1.0930 o         1 MOL     -0.529073
     23 C9          8.1220   -1.7210   -1.9940 c3        1 MOL     -0.013346
     24 C10         6.7950   -2.1450   -2.5110 c3        1 MOL      0.003128
     25 C11         7.0620   -3.4880   -3.2520 c3        1 MOL      0.087904
     26 C12         5.7500   -3.9870   -3.7820 c3        1 MOL      0.030144
     27 N3          5.8600   -5.2090   -4.6590 n4        1 MOL     -0.462600
     28 H8         10.1120   -0.6080   -1.0260 hn        1 MOL      0.306539
     29 H9          7.6020    0.4130   -1.9420 h1        1 MOL      0.122208
     30 H10         8.6390   -2.4970   -1.4340 hc        1 MOL      0.040057
     31 H11         8.7790   -1.5520   -2.8480 hc        1 MOL      0.040057
     32 H12         6.3370   -1.3840   -3.1550 hc        1 MOL     -0.024732
     33 H13         6.1520   -2.2980   -1.6450 hc        1 MOL     -0.024732
     34 H14         7.5100   -4.1790   -2.5380 hc        1 MOL     -0.000394
     35 H15         7.7440   -3.2600   -4.0710 hc        1 MOL     -0.000394
     36 H16         5.3460   -3.1500   -4.3490 hx        1 MOL      0.096678
     37 H17         5.2270   -4.0950   -2.8380 hx        1 MOL      0.096678
     38 H18         6.3420   -4.9350   -5.5040 hn        1 MOL      0.318825
     39 H19         6.4210   -5.9020   -4.1920 hn        1 MOL      0.318825
     40 H20         4.9390   -5.5920   -4.8300 hn        1 MOL      0.318825
     41 N4          6.0910    0.1510    0.2310 n         1 MOL     -0.600463
     42 C13         5.2820   -0.0090    1.4270 c3        1 MOL      0.345454
     43 C14         3.8190    0.2330    0.9740 c         1 MOL      0.319808
     44 O6          3.4590    0.6240   -0.1680 o         1 MOL     -0.531927
     45 C15         5.6110    1.0940    2.4720 c3        1 MOL     -0.368248
     46 C16         6.3850    2.2400    1.9450 c         1 MOL      0.976723
     47 O7          5.7540    3.0110    1.2080 o         1 MOL     -0.834240
     48 O8          7.6060    2.3450    2.0610 o         1 MOL     -0.834240
     49 H21         5.7440    0.7020   -0.5390 hn        1 MOL      0.254289
     50 H22         5.4620   -1.0040    1.8220 h1        1 MOL      0.051894
     51 H23         6.2520    0.6030    3.2100 hc        1 MOL      0.082061
     52 H24         4.6710    1.4440    2.8940 hc        1 MOL      0.082061
     53 N5          2.8070    0.0350    1.8140 n         1 MOL     -0.188133
     54 C17         2.8660   -0.6640    3.0490 c3        1 MOL     -0.270358
     55 C18         3.0130   -2.2200    3.0060 c         1 MOL      0.749783
     56 O9          3.5470   -2.7460    2.0310 o         1 MOL     -0.620349
     57 H25         1.8830    0.2040    1.4410 hn        1 MOL      0.266398
     58 H26         1.8790   -0.5380    3.5070 h1        1 MOL      0.094593
     59 H27         3.6330   -0.2510    3.6980 h1        1 MOL      0.094593
     60 N6          2.5100   -2.8600    4.0820 n         1 MOL     -0.515503
     61 C19         2.5120   -4.2750    4.2380 c3        1 MOL      0.121572
     62 C20         1.4710   -4.9050    3.2650 c         1 MOL      0.526252
     63 O10         0.2440   -4.5860    3.3000 o         1 MOL     -0.506313
     64 C21         2.1570   -4.5800    5.6890 c3        1 MOL     -0.287321
     65 C22         2.3620   -6.0520    5.9200 c         1 MOL      0.688487
     66 O11         1.4190   -6.8180    5.8100 o         1 MOL     -0.652720
     67 O12         3.5250   -6.4190    6.1110 o         1 MOL     -0.652720
     68 H28         1.7910   -2.3690    4.5950 hn        1 MOL      0.274766
     69 H29         3.5060   -4.7000    4.0420 h1        1 MOL      0.053016
     70 H30         1.1170   -4.2650    5.8340 hc        1 MOL      0.081094
     71 H31         2.9200   -3.9650    6.1540 hc        1 MOL      0.081094
     72 N7          1.9320   -5.8280    2.3780 n         1 MOL     -0.341752
     73 C23         1.1090   -6.5890    1.3750 c3        1 MOL     -0.041402
     74 C24         0.5310   -5.8980    0.1720 c         1 MOL      0.530992
     75 O13        -0.0130   -6.6300   -0.6770 o         1 MOL     -0.581327
     76 H32         2.9110   -6.0780    2.3050 hn        1 MOL      0.260444
     77 H33         0.2740   -6.9870    1.9470 h1        1 MOL      0.082863
     78 H34         1.6710   -7.4240    0.9430 h1        1 MOL      0.082863
     79 N8          0.7080   -4.5880    0.0500 n         1 MOL     -0.144323
     80 C25         0.3380   -3.7540   -1.1730 c3        1 MOL     -0.054216
     81 C26        -0.3260   -2.4780   -0.7360 c         1 MOL      0.481494
     82 O14        -0.2500   -1.9880    0.4340 o         1 MOL     -0.428948
     83 C27         1.6360   -3.3860   -2.0280 c3        1 MOL      0.104663
     84 C28         2.7980   -2.8600   -1.1650 c3        1 MOL     -0.287190
     85 O15         2.1560   -4.5900   -2.5820 oh        1 MOL     -0.683812
     86 H35         1.0510   -4.0780    0.8530 hn        1 MOL      0.058016
     87 H36        -0.3140   -4.2980   -1.8520 h1        1 MOL      0.063341
     88 H37         1.4530   -2.8430   -2.9520 h1        1 MOL      0.068898
     89 H38         1.5100   -4.9900   -3.1720 ho        1 MOL      0.424005
     90 H39         2.5070   -1.9720   -0.6000 hc        1 MOL      0.133146
     91 H40         3.1710   -3.6790   -0.5440 hc        1 MOL      0.133146
     92 H41         3.6340   -2.6210   -1.8300 hc        1 MOL      0.133146
     93 N9         -0.9240   -1.7570   -1.7250 n         1 MOL     -0.333935
     94 C29        -1.3060   -0.3220   -1.4870 c3        1 MOL     -0.031028
     95 C30        -2.7690   -0.1950   -0.8080 c         1 MOL      0.426450
     96 O16        -2.9890    0.6610    0.0500 o         1 MOL     -0.500987
     97 C31        -1.3290    0.4620   -2.8140 c3        1 MOL      0.182461
     98 C32        -0.0080    0.2200   -3.5570 c3        1 MOL     -0.134722
     99 C33        -1.6410    1.9600   -2.6090 c3        1 MOL     -0.401626
    100 C34         1.2460    0.7840   -2.8430 c3        1 MOL     -0.007113
    101 H42        -1.1730   -2.1290   -2.6340 hn        1 MOL      0.258661
    102 H43        -0.5650    0.1830   -0.8650 h1        1 MOL      0.099605
    103 H44        -2.0900    0.0330   -3.4680 hc        1 MOL     -0.012127
    104 H45        -0.0690    0.7720   -4.4990 hc        1 MOL      0.013035
    105 H46         0.1580   -0.8240   -3.8100 hc        1 MOL      0.013035
    106 H47        -1.0490    2.2870   -1.7500 hc        1 MOL      0.119549
    107 H48        -1.3450    2.4420   -3.5360 hc        1 MOL      0.119549
    108 H49        -2.6830    2.1350   -2.3420 hc        1 MOL      0.119549
    109 H50         2.1730    0.6780   -3.4100 hc        1 MOL      0.005840
    110 H51         1.1570    1.8550   -2.6740 hc        1 MOL      0.005840
    111 H52         1.3950    0.1470   -1.9800 hc        1 MOL      0.005840
    112 N10        -3.7280   -1.0700   -1.1450 n         1 MOL     -0.306735
    113 C35        -5.0340   -1.2450   -0.4020 c3        1 MOL     -0.078997
    114 C36        -5.9690   -1.8170   -1.4350 c         1 MOL      0.599831
    115 O17        -5.6360   -2.4250   -2.4210 o         1 MOL     -0.506373
    116 C37        -4.9740   -2.2000    0.8180 c3        1 MOL      0.305282
    117 C38        -4.5690   -3.6470    0.5370 c3        1 MOL     -0.183110
    118 O18        -4.0070   -1.6550    1.6460 oh        1 MOL     -0.550869
    119 H53        -3.5580   -1.7120   -1.9010 hn        1 MOL      0.186521
    120 H54        -5.3810   -0.2550   -0.1200 h1        1 MOL      0.088071
    121 H55        -5.8910   -2.2280    1.4130 h1        1 MOL      0.005021
    122 H56        -4.3080   -0.7680    1.8650 ho        1 MOL      0.386997
    123 H57        -5.3110   -4.1800   -0.0500 hc        1 MOL      0.062907
    124 H58        -3.6120   -3.6130    0.0100 hc        1 MOL      0.062907
    125 H59        -4.4630   -4.2530    1.4270 hc        1 MOL      0.062907
    126 N11        -7.3280   -1.5610   -1.2880 n         1 MOL     -0.537336
    127 C39        -8.3310   -1.7650   -2.3450 c3        1 MOL      0.014129
    128 C40        -9.4820   -0.6920   -2.3300 c         1 MOL      0.679628
    129 O19        -9.8450   -0.1920   -3.4100 o         1 MOL     -0.582347
    130 C41        -9.0020   -3.1510   -2.3000 c3        1 MOL      0.236016
    131 C42       -10.0130   -3.3630   -3.4190 c3        1 MOL     -0.518458
    132 O20        -9.6130   -3.2580   -0.9900 oh        1 MOL     -0.636183
    133 H60        -7.4860   -0.9030   -0.5410 hn        1 MOL      0.248035
    134 H61        -7.8410   -1.5470   -3.3000 h1        1 MOL      0.094496
    135 H62        -8.2330   -3.9070   -2.4970 h1        1 MOL      0.070887
    136 H63        -9.8340   -4.1860   -0.8810 ho        1 MOL      0.420914
    137 H64       -10.9810   -2.8690   -3.3730 hc        1 MOL      0.142231
    138 H65        -9.6330   -3.0600   -4.3910 hc        1 MOL      0.142231
    139 H66       -10.3440   -4.4070   -3.3680 hc        1 MOL      0.142231
    140 N12        -9.9730   -0.2790   -1.1640 n         1 MOL     -0.624542
    141 C43       -10.9640    0.7910   -0.9110 c3        1 MOL      0.010434
    142 C44       -10.4890    1.5110    0.3280 c         1 MOL      0.766791
    143 O21       -10.4070    0.9130    1.3430 o         1 MOL     -0.559067
    144 C45       -12.3480    0.1370   -0.7700 c3        1 MOL     -0.066925
    145 C46       -13.4320    1.1690   -1.1650 c3        1 MOL      0.013541
    146 C47       -14.7510    0.4580   -0.9880 c3        1 MOL      0.056499
    147 C48       -15.8680    1.2730   -1.5780 c3        1 MOL      0.066762
    148 N13       -17.1780    0.8140   -1.1160 n4        1 MOL     -0.315543
    149 H67        -9.6200   -0.7670   -0.3570 hn        1 MOL      0.340925
    150 H68       -11.0120    1.4640   -1.7660 h1        1 MOL      0.107829
    151 H69       -12.5670   -0.1090    0.2660 hc        1 MOL      0.072548
    152 H70       -12.3610   -0.7580   -1.3820 hc        1 MOL      0.072548
    153 H71       -13.2790    1.4950   -2.1910 hc        1 MOL      0.013642
    154 H72       -13.3910    1.9810   -0.4420 hc        1 MOL      0.013642
    155 H73       -14.7510    0.3750    0.0950 hc        1 MOL     -0.006315
    156 H74       -14.6480   -0.5700   -1.3600 hc        1 MOL     -0.006315
    157 H75       -15.6790    1.2200   -2.6590 hx        1 MOL      0.059447
    158 H76       -15.7140    2.3070   -1.2850 hx        1 MOL      0.059447
    159 H77       -17.3270   -0.1720   -1.2650 hn        1 MOL      0.267918
    160 H78       -17.1900    1.0020   -0.1240 hn        1 MOL      0.267918
    161 H79       -17.8650    1.3260   -1.6640 hn        1 MOL      0.267918
    162 N14       -10.4040    2.8370    0.3530 n         1 MOL     -0.740451
    163 C49        -9.8720    3.6380    1.4290 c3        1 MOL      0.570271
    164 C50        -8.3770    3.4870    1.5750 c         1 MOL      0.242116
    165 O22        -8.0040    2.8990    2.6160 o         1 MOL     -0.517278
    166 C51       -10.3400    5.1030    1.4130 c3        1 MOL      0.036952
    167 C52       -10.1400    5.8060    2.7730 c3        1 MOL     -0.160878
    168 C53       -10.8860    7.1810    2.7990 c         1 MOL      0.669301
    169 O23       -10.3830    8.1170    3.5040 o         1 MOL     -0.654200
    170 O24       -11.8480    7.3270    2.0520 o         1 MOL     -0.654200
    171 H80       -10.4940    3.3080   -0.5350 hn        1 MOL      0.229528
    172 H81       -10.3180    3.4800    2.4040 h1        1 MOL     -0.033396
    173 H82       -11.4310    5.0470    1.3600 hc        1 MOL     -0.020118
    174 H83        -9.8700    5.5890    0.5610 hc        1 MOL     -0.020118
    175 H84        -9.0730    5.9200    2.9600 hc        1 MOL      0.034339
    176 H85       -10.4950    5.2620    3.6500 hc        1 MOL      0.034339
    177 N15        -7.5140    3.6730    0.5360 n         1 MOL     -0.291063
    178 C54        -7.7610    4.4790   -0.6440 c3        1 MOL     -0.151529
    179 H86        -6.9150    5.1460   -0.8110 h1        1 MOL      0.078958
    180 H87        -7.8860    3.8290   -1.5100 h1        1 MOL      0.078958
    181 H88        -8.6650    5.0700   -0.4990 h1        1 MOL      0.078958
    182 H89        -6.5470    3.3790    0.5980 hn        1 MOL      0.289185
    183 Ca1         7.7230    4.5690    0.3900 Ca        1 MOL      1.729521
    184 O25         6.5960    5.8270    2.5590 oh        1 MOL     -0.811612
    185 H90         5.8370    6.0030    2.0150 ho        1 MOL      0.407196
    186 H91         6.2450    5.7380    3.4480 ho        1 MOL      0.407196
    187 O26         9.1020    5.2650   -1.7570 oh        1 MOL     -0.811612
    188 H92         9.0080    6.0980   -2.2070 ho        1 MOL      0.407196
    189 H93         9.5120    4.6820   -2.4000 ho        1 MOL      0.407196
    190 O27         8.8060    7.1190    0.5350 oh        1 MOL     -0.811612
    191 H94         9.3800    7.1160   -0.2330 ho        1 MOL      0.407196
    192 H95         9.0100    7.9390    0.9750 ho        1 MOL      0.407196
    193 O28         6.7680    3.8620   -2.1490 oh        1 MOL     -0.811612
    194 H96         6.2010    3.0990   -2.2040 ho        1 MOL      0.407196
    195 H97         7.2050    3.8990   -3.0090 ho        1 MOL      0.407196
@<TRIPOS>BOND
     1    1    2 1   
     2    1    4 1   
     3    1    5 1   
     4    1    6 1   
     5    2    3 2   
     6    2    7 1   
     7    7    8 1   
     8    7   15 1   
     9    8    9 1   
    10    8   11 1   
    11    8   16 1   
    12    9   10 2   
    13    9   19 1   
    14   11   12 1   
    15   11   17 1   
    16   11   18 1   
    17   12   13 1   
    18   12   14 1   
    19   19   20 1   
    20   19   28 1   
    21   20   21 1   
    22   20   23 1   
    23   20   29 1   
    24   21   22 2   
    25   21   41 1   
    26   23   24 1   
    27   23   30 1   
    28   23   31 1   
    29   24   25 1   
    30   24   32 1   
    31   24   33 1   
    32   25   26 1   
    33   25   34 1   
    34   25   35 1   
    35   26   27 1   
    36   26   36 1   
    37   26   37 1   
    38   27   38 1   
    39   27   39 1   
    40   27   40 1   
    41   41   42 1   
    42   41   49 1   
    43   42   43 1   
    44   42   45 1   
    45   42   50 1   
    46   43   44 2   
    47   43   53 1   
    48   45   46 1   
    49   45   51 1   
    50   45   52 1   
    51   46   47 1   
    52   46   48 1   
    53   53   54 1   
    54   53   57 1   
    55   54   55 1   
    56   54   58 1   
    57   54   59 1   
    58   55   56 2   
    59   55   60 1   
    60   60   61 1   
    61   60   68 1   
    62   61   62 1   
    63   61   64 1   
    64   61   69 1   
    65   62   63 2   
    66   62   72 1   
    67   64   65 1   
    68   64   70 1   
    69   64   71 1   
    70   65   66 1   
    71   65   67 1   
    72   72   73 1   
    73   72   76 1   
    74   73   74 1   
    75   73   77 1   
    76   73   78 1   
    77   74   75 2   
    78   74   79 1   
    79   79   80 1   
    80   79   86 1   
    81   80   81 1   
    82   80   83 1   
    83   80   87 1   
    84   81   82 2   
    85   81   93 1   
    86   83   84 1   
    87   83   85 1   
    88   83   88 1   
    89   84   90 1   
    90   84   91 1   
    91   84   92 1   
    92   85   89 1   
    93   93   94 1   
    94   93  101 1   
    95   94   95 1   
    96   94   97 1   
    97   94  102 1   
    98   95   96 2   
    99   95  112 1   
   100   97   98 1   
   101   97   99 1   
   102   97  103 1   
   103   98  100 1   
   104   98  104 1   
   105   98  105 1   
   106   99  106 1   
   107   99  107 1   
   108   99  108 1   
   109  100  109 1   
   110  100  110 1   
   111  100  111 1   
   112  112  113 1   
   113  112  119 1   
   114  113  114 1   
   115  113  116 1   
   116  113  120 1   
   117  114  115 2   
   118  114  126 1   
   119  116  117 1   
   120  116  118 1   
   121  116  121 1   
   122  117  123 1   
   123  117  124 1   
   124  117  125 1   
   125  118  122 1   
   126  126  127 1   
   127  126  133 1   
   128  127  128 1   
   129  127  130 1   
   130  127  134 1   
   131  128  129 2   
   132  128  140 1   
   133  130  131 1   
   134  130  132 1   
   135  130  135 1   
   136  131  137 1   
   137  131  138 1   
   138  131  139 1   
   139  132  136 1   
   140  140  141 1   
   141  140  149 1   
   142  141  142 1   
   143  141  144 1   
   144  141  150 1   
   145  142  143 2   
   146  142  162 1   
   147  144  145 1   
   148  144  151 1   
   149  144  152 1   
   150  145  146 1   
   151  145  153 1   
   152  145  154 1   
   153  146  147 1   
   154  146  155 1   
   155  146  156 1   
   156  147  148 1   
   157  147  157 1   
   158  147  158 1   
   159  148  159 1   
   160  148  160 1   
   161  148  161 1   
   162  162  163 1   
   163  162  171 1   
   164  163  164 1   
   165  163  166 1   
   166  163  172 1   
   167  164  165 2   
   168  164  177 1   
   169  166  167 1   
   170  166  173 1   
   171  166  174 1   
   172  167  168 1   
   173  167  175 1   
   174  167  176 1   
   175  168  169 1   
   176  168  170 1   
   177  177  178 1   
   178  177  182 1   
   179  178  179 1   
   180  178  180 1   
   181  178  181 1   
   182  184  185 1   
   183  184  186 1   
   184  187  188 1   
   185  187  189 1   
   186  190  191 1   
   187  190  192 1   
   188  193  194 1   
   189  193  195 1   
@<TRIPOS>SUBSTRUCTURE
     1 MOL         1 TEMP              0 ****  ****    0 ROOT
