@<TRIPOS>MOLECULE
MOL
  192   187     1     0     0
SMALL
resp


@<TRIPOS>ATOM
      1 C1          3.9130    4.3350   -3.6950 c3        1 MOL     -0.446683
      2 C2          4.6890    3.4520   -2.6790 c         1 MOL      0.827121
      3 O1          4.1850    3.0510   -1.6530 o         1 MOL     -0.656076
      4 H1          3.4620    5.1790   -3.1720 hc        1 MOL      0.119464
      5 H2          4.6010    4.7050   -4.4550 hc        1 MOL      0.119464
      6 H3          3.1310    3.7420   -4.1690 hc        1 MOL      0.119464
      7 N1          5.9760    3.0490   -3.0030 n         1 MOL     -0.803083
      8 C3          6.8040    2.0870   -2.2960 c3        1 MOL      0.213425
      9 C4          6.0680    0.8010   -1.9130 c         1 MOL      0.115681
     10 O2          5.6500    0.5970   -0.7920 o         1 MOL     -0.449676
     11 C5          7.7070    2.7240   -1.1990 c3        1 MOL      0.079487
     12 C6          7.1640    3.7550   -0.3180 c         1 MOL      0.675900
     13 O3          6.1970    3.5280    0.5260 o         1 MOL     -0.719091
     14 O4          7.7330    4.9030   -0.3440 o         1 MOL     -0.719091
     15 H4          6.3080    3.4990   -3.8410 hn        1 MOL      0.361890
     16 H5          7.5700    1.6500   -2.9300 h1        1 MOL      0.044085
     17 H6          8.5890    3.1780   -1.6560 hc        1 MOL     -0.018508
     18 H7          8.1080    1.9130   -0.5830 hc        1 MOL     -0.018508
     19 N2          5.8830   -0.0470   -2.9160 n         1 MOL     -0.139088
     20 C7          5.2820   -1.3640   -2.8220 c3        1 MOL     -0.191682
     21 C8          6.2040   -2.3670   -2.1260 c         1 MOL      0.443599
     22 O5          6.5820   -3.3750   -2.7110 o         1 MOL     -0.570190
     23 C9          3.7050   -1.4210   -2.4270 c3        1 MOL      0.534804
     24 C10         3.0830   -2.7990   -2.7390 c3        1 MOL     -0.136451
     25 C11         2.9040   -0.3120   -3.1600 c3        1 MOL     -0.303505
     26 C12         2.7350   -3.1630   -4.1960 c3        1 MOL     -0.075982
     27 H8          6.3410    0.2760   -3.7520 hn        1 MOL      0.235998
     28 H9          5.2610   -1.6180   -3.8900 h1        1 MOL      0.054099
     29 H10         3.6010   -1.3530   -1.3460 hc        1 MOL     -0.213957
     30 H11         2.1180   -2.7210   -2.2330 hc        1 MOL      0.057626
     31 H12         3.7030   -3.5640   -2.2850 hc        1 MOL      0.057626
     32 H13         1.8610   -0.6290   -3.2550 hc        1 MOL      0.059953
     33 H14         2.9590    0.6150   -2.5910 hc        1 MOL      0.059953
     34 H15         3.3640   -0.1300   -4.1280 hc        1 MOL      0.059953
     35 H16         2.2850   -4.1590   -4.1820 hc        1 MOL      0.003408
     36 H17         2.0530   -2.4280   -4.6090 hc        1 MOL      0.003408
     37 H18         3.6140   -3.1720   -4.8390 hc        1 MOL      0.003408
     38 N3          6.4330   -2.1530   -0.8500 n         1 MOL     -0.078482
     39 C13         7.3500   -2.9340   -0.0100 c3        1 MOL     -0.231625
     40 C14         6.7540   -4.2200    0.6440 c         1 MOL      0.666947
     41 O6          7.5210   -5.2050    0.7890 o         1 MOL     -0.600305
     42 C15         8.1050   -2.1200    1.0990 c3        1 MOL     -0.128368
     43 C16         8.5900   -0.6870    0.6680 c         1 MOL      0.699988
     44 O7          9.1840   -0.5640   -0.4520 o         1 MOL     -0.696987
     45 O8          8.3770    0.2600    1.4290 o         1 MOL     -0.696987
     46 H19         6.0100   -1.3280   -0.4370 hn        1 MOL      0.269306
     47 H20         8.1740   -3.2110   -0.6700 h1        1 MOL      0.115112
     48 H21         8.9590   -2.7050    1.4490 hc        1 MOL      0.052925
     49 H22         7.4120   -1.9470    1.9190 hc        1 MOL      0.052925
     50 N4          5.4830   -4.4240    1.1210 n         1 MOL     -0.637163
     51 C17         4.5110   -3.3600    1.3820 c3        1 MOL      0.290967
     52 C18         3.3500   -3.9870    2.2310 c         1 MOL      0.545497
     53 O9          3.0730   -5.1800    2.1080 o         1 MOL     -0.598584
     54 H23         5.2470   -5.2870    1.6010 hn        1 MOL      0.324526
     55 H24         4.0650   -2.9280    0.4920 h1        1 MOL     -0.006592
     56 H25         4.9760   -2.5660    1.9790 h1        1 MOL     -0.006592
     57 N5          2.5550   -3.2070    2.8790 n         1 MOL     -0.377685
     58 C19         2.4150   -1.7410    3.0690 c3        1 MOL      0.010289
     59 C20         2.3540   -0.9740    1.8070 c         1 MOL      0.282609
     60 O10         3.3400   -0.3710    1.3540 o         1 MOL     -0.550149
     61 C21         3.5060   -1.2910    4.0460 c3        1 MOL     -0.448181
     62 C22         3.7450   -2.1830    5.2670 c         1 MOL      0.746235
     63 O11         4.8830   -2.7550    5.2980 o         1 MOL     -0.726727
     64 O12         2.9150   -2.2080    6.2110 o         1 MOL     -0.726727
     65 H26         1.8190   -3.6900    3.3620 hn        1 MOL      0.273408
     66 H27         1.4830   -1.5670    3.6000 h1        1 MOL      0.100261
     67 H28         3.2390   -0.2810    4.3570 hc        1 MOL      0.147771
     68 H29         4.4680   -1.1120    3.5570 hc        1 MOL      0.147771
     69 N6          1.2710   -1.0850    1.0090 n         1 MOL     -0.082908
     70 C23        -0.0200   -1.7360    1.4550 c3        1 MOL     -0.105930
     71 C24        -0.3550   -3.0080    0.7130 c         1 MOL      0.678999
     72 O13         0.5550   -3.6420    0.1340 o         1 MOL     -0.539065
     73 H30         1.1650   -0.4830    0.2080 hn        1 MOL      0.182064
     74 H31        -0.7540   -0.9430    1.2780 h1        1 MOL      0.051108
     75 H32        -0.0770   -1.9780    2.5200 h1        1 MOL      0.051108
     76 N7         -1.6310   -3.3130    0.5980 n         1 MOL     -0.614857
     77 C25        -2.1680   -4.5380    0.0600 c3        1 MOL     -0.028830
     78 C26        -3.0800   -4.5170   -1.2170 c         1 MOL      0.556193
     79 O14        -3.3750   -5.5730   -1.7100 o         1 MOL     -0.528552
     80 C27        -2.7650   -5.4120    1.2040 c3        1 MOL      0.036007
     81 C28        -4.0280   -4.8720    1.9030 c3        1 MOL     -0.276248
     82 C29        -5.1580   -4.5050    0.9660 c         1 MOL      0.583246
     83 N8         -5.9620   -5.4980    0.5440 n         1 MOL     -0.808492
     84 O15        -5.3300   -3.4060    0.5560 o         1 MOL     -0.544334
     85 H33        -2.2270   -2.6440    1.0660 hn        1 MOL      0.330660
     86 H34        -1.3360   -5.1190   -0.3390 h1        1 MOL      0.137890
     87 H35        -2.0910   -5.5840    2.0440 hc        1 MOL      0.036515
     88 H36        -2.8920   -6.4420    0.8700 hc        1 MOL      0.036515
     89 H37        -3.8380   -3.9510    2.4570 hc        1 MOL      0.101747
     90 H38        -4.2790   -5.5970    2.6830 hc        1 MOL      0.101747
     91 H39        -5.7280   -6.4650    0.7090 hn        1 MOL      0.371807
     92 H40        -6.6120   -5.2120   -0.1690 hn        1 MOL      0.371807
     93 N9         -3.3880   -3.3020   -1.7850 n         1 MOL     -0.296144
     94 C30        -3.8320   -2.9840   -3.1190 c3        1 MOL     -0.107724
     95 C31        -5.2150   -2.2260   -3.2160 c         1 MOL      0.264136
     96 O16        -5.8050   -2.0210   -4.2750 o         1 MOL     -0.522890
     97 C32        -2.7540   -2.2360   -3.9920 c3        1 MOL      0.313860
     98 C33        -1.4800   -3.0500   -4.4160 c3        1 MOL     -0.322480
     99 C34        -2.2480   -0.9180   -3.2840 c3        1 MOL     -0.322480
    100 H41        -3.3050   -2.4450   -1.2640 hn        1 MOL      0.192679
    101 H42        -4.0300   -3.9400   -3.5810 h1        1 MOL      0.120625
    102 H43        -3.2200   -2.0330   -4.9580 hc        1 MOL     -0.024985
    103 H44        -1.8870   -3.9230   -4.9170 hc        1 MOL      0.078472
    104 H45        -0.8350   -2.4340   -5.0470 hc        1 MOL      0.078472
    105 H46        -0.9110   -3.3590   -3.5400 hc        1 MOL      0.078472
    106 H47        -1.4340   -1.2880   -2.6680 hc        1 MOL      0.078472
    107 H48        -1.8420   -0.2660   -4.0680 hc        1 MOL      0.078472
    108 H49        -2.9330   -0.3020   -2.7060 hc        1 MOL      0.078472
    109 N10        -5.7770   -1.9910   -2.0710 n         1 MOL     -0.046820
    110 C35        -7.1110   -1.3910   -1.9340 c3        1 MOL      0.031332
    111 C36        -7.1090    0.0990   -1.4420 c         1 MOL      0.621450
    112 O17        -8.1600    0.6920   -1.6470 o         1 MOL     -0.582844
    113 C37        -8.0200   -2.4370   -1.2450 c3        1 MOL     -0.252942
    114 C38        -8.1190   -3.7490   -1.9440 c         1 MOL      0.673624
    115 N11        -8.5650   -3.8120   -3.1980 n         1 MOL     -0.809132
    116 O18        -7.8710   -4.7590   -1.3800 o         1 MOL     -0.541915
    117 H50        -5.3240   -2.3270   -1.2310 hn        1 MOL      0.213082
    118 H51        -7.4990   -1.3230   -2.9510 h1        1 MOL      0.034340
    119 H52        -8.9970   -1.9930   -1.0600 hc        1 MOL      0.081902
    120 H53        -7.6490   -2.6450   -0.2450 hc        1 MOL      0.081902
    121 H54        -8.6400   -2.9330   -3.6980 hn        1 MOL      0.380543
    122 H55        -8.5820   -4.7310   -3.6120 hn        1 MOL      0.380543
    123 N12        -6.2050    0.7210   -0.8020 n         1 MOL     -0.605565
    124 C39        -6.3090    1.9930   -0.1480 c3        1 MOL      0.450725
    125 C40        -4.9660    2.6350    0.1080 c         1 MOL      0.473378
    126 O19        -3.8700    1.9400    0.2630 o         1 MOL     -0.462035
    127 C41        -7.1250    1.9010    1.1400 c3        1 MOL     -0.153746
    128 C42        -6.7810    0.9540    2.2070 ca        1 MOL      0.171225
    129 C43        -7.4670   -0.3420    2.3800 ca        1 MOL     -0.263117
    130 C44        -5.8110    1.3490    3.1830 ca        1 MOL     -0.263117
    131 C45        -7.0510   -1.2610    3.3700 ca        1 MOL     -0.159938
    132 C46        -5.4380    0.4240    4.1560 ca        1 MOL     -0.159938
    133 C47        -6.0310   -0.8350    4.2560 ca        1 MOL      0.212502
    134 O20        -5.5710   -1.7700    5.1420 oh        1 MOL     -0.448133
    135 H56        -5.3010    0.3140   -0.6190 hn        1 MOL      0.202397
    136 H57        -6.8130    2.7120   -0.8000 h1        1 MOL     -0.018715
    137 H58        -8.1130    1.7020    0.7220 hc        1 MOL      0.032005
    138 H59        -7.2060    2.8980    1.5750 hc        1 MOL      0.032005
    139 H60        -8.2960   -0.5500    1.7170 ha        1 MOL      0.150434
    140 H61        -5.3350    2.3170    3.1390 ha        1 MOL      0.150434
    141 H62        -7.5080   -2.2280    3.4760 ha        1 MOL      0.144337
    142 H63        -4.6730    0.5970    4.9000 ha        1 MOL      0.144337
    143 H64        -6.1750   -2.5180    5.1640 ho        1 MOL      0.324687
    144 N13        -4.9190    3.9660    0.1640 n         1 MOL     -0.684769
    145 C48        -3.9280    4.9190    0.7820 c3        1 MOL      0.125410
    146 C49        -2.4950    4.8390    0.1480 c         1 MOL      0.205289
    147 O21        -1.6710    5.6840    0.4680 o         1 MOL     -0.471026
    148 C50        -3.8460    4.7780    2.2800 c3        1 MOL     -0.131666
    149 C51        -5.2070    5.1010    2.9620 c3        1 MOL     -0.305832
    150 C52        -5.4730    6.6590    3.0120 c         1 MOL      0.718764
    151 O22        -4.9220    7.2690    3.9120 o         1 MOL     -0.721844
    152 O23        -6.2580    7.1260    2.1670 o         1 MOL     -0.721844
    153 H65        -5.8080    4.3410   -0.1490 hn        1 MOL      0.335078
    154 H66        -4.2760    5.9350    0.5990 h1        1 MOL      0.120804
    155 H67        -3.0790    5.4630    2.6260 hc        1 MOL      0.114528
    156 H68        -3.6680    3.7410    2.5530 hc        1 MOL      0.114528
    157 H69        -5.0910    4.6830    3.9630 hc        1 MOL      0.073430
    158 H70        -5.9470    4.5540    2.3800 hc        1 MOL      0.073430
    159 N14        -2.2210    3.9740   -0.7950 n         1 MOL      0.023999
    160 C53        -0.9880    3.9460   -1.6100 c3        1 MOL     -0.177324
    161 C54        -1.2620    4.8620   -2.7710 c         1 MOL      0.422697
    162 O24        -0.2830    5.4200   -3.3650 o         1 MOL     -0.560198
    163 C55        -0.6740    2.4490   -1.9890 c3        1 MOL      0.218499
    164 C56        -0.6260    1.4930   -0.8200 c3        1 MOL     -0.231773
    165 C57         0.3770    1.9000    0.2590 c         1 MOL      0.841248
    166 O25        -0.0850    2.3930    1.3250 o         1 MOL     -0.710070
    167 O26         1.5830    1.8560   -0.0850 o         1 MOL     -0.710070
    168 H71        -2.9880    3.3300   -0.9960 hn        1 MOL      0.152418
    169 H72        -0.1680    4.3900   -1.0410 h1        1 MOL      0.196835
    170 H73         0.2820    2.3480   -2.5140 hc        1 MOL     -0.038228
    171 H74        -1.4450    2.1730   -2.7150 hc        1 MOL     -0.038228
    172 H75        -0.3370    0.4850   -1.1340 hc        1 MOL     -0.007295
    173 H76        -1.5990    1.3310   -0.3560 hc        1 MOL     -0.007295
    174 N15        -2.4670    5.0170   -3.2090 n         1 MOL     -0.187064
    175 C58        -3.1330    6.0070   -4.1130 c3        1 MOL     -0.252601
    176 H77        -3.9810    6.4570   -3.5960 h1        1 MOL      0.111400
    177 H78        -2.4220    6.7850   -4.3870 h1        1 MOL      0.111400
    178 H79        -3.4840    5.5000   -5.0120 h1        1 MOL      0.111400
    179 H80        -3.1240    4.3240   -2.8850 hn        1 MOL      0.193530
    180 Ca1         4.0360    2.1650    0.7900 Ca        1 MOL      1.803721
    181 O27         5.9360    0.7570    2.1820 oh        1 MOL     -0.843420
    182 H81         6.2240    0.2760    2.9550 ho        1 MOL      0.396989
    183 H82         6.7530    0.9860    1.7390 ho        1 MOL      0.396989
    184 O28         4.3510    3.4510    3.0810 oh        1 MOL     -0.843420
    185 H83         4.5790    4.3810    3.0300 ho        1 MOL      0.396989
    186 H84         3.5230    3.4290    3.5670 ho        1 MOL      0.396989
    187 O29         1.9080    1.9240    2.8820 oh        1 MOL     -0.843420
    188 H85         1.4700    1.5780    3.6580 ho        1 MOL      0.396989
    189 H86         1.1880    2.0830    2.2590 ho        1 MOL      0.396989
    190 O30         3.2200    4.7170    0.4850 oh        1 MOL     -0.843420
    191 H87         2.4520    5.2670    0.3850 ho        1 MOL      0.396989
    192 H88         3.9610    5.3120    0.4340 ho        1 MOL      0.396989
@<TRIPOS>BOND
     1    1    2 1   
     2    1    4 1   
     3    1    5 1   
     4    1    6 1   
     5    2    3 2   
     6    2    7 1   
     7    7    8 1   
     8    7   15 1   
     9    8    9 1   
    10    8   11 1   
    11    8   16 1   
    12    9   10 2   
    13    9   19 1   
    14   11   12 1   
    15   11   17 1   
    16   11   18 1   
    17   12   13 1   
    18   12   14 1   
    19   19   20 1   
    20   19   27 1   
    21   20   21 1   
    22   20   23 1   
    23   20   28 1   
    24   21   22 2   
    25   21   38 1   
    26   23   24 1   
    27   23   25 1   
    28   23   29 1   
    29   24   26 1   
    30   24   30 1   
    31   24   31 1   
    32   25   32 1   
    33   25   33 1   
    34   25   34 1   
    35   26   35 1   
    36   26   36 1   
    37   26   37 1   
    38   38   39 1   
    39   38   46 1   
    40   39   40 1   
    41   39   42 1   
    42   39   47 1   
    43   40   41 2   
    44   40   50 1   
    45   42   43 1   
    46   42   48 1   
    47   42   49 1   
    48   43   44 1   
    49   43   45 1   
    50   50   51 1   
    51   50   54 1   
    52   51   52 1   
    53   51   55 1   
    54   51   56 1   
    55   52   53 2   
    56   52   57 1   
    57   57   58 1   
    58   57   65 1   
    59   58   59 1   
    60   58   61 1   
    61   58   66 1   
    62   59   60 2   
    63   59   69 1   
    64   61   62 1   
    65   61   67 1   
    66   61   68 1   
    67   62   63 1   
    68   62   64 1   
    69   69   70 1   
    70   69   73 1   
    71   70   71 1   
    72   70   74 1   
    73   70   75 1   
    74   71   72 2   
    75   71   76 1   
    76   76   77 1   
    77   76   85 1   
    78   77   78 1   
    79   77   80 1   
    80   77   86 1   
    81   78   79 2   
    82   78   93 1   
    83   80   81 1   
    84   80   87 1   
    85   80   88 1   
    86   81   82 1   
    87   81   89 1   
    88   81   90 1   
    89   82   83 1   
    90   82   84 2   
    91   83   91 1   
    92   83   92 1   
    93   93   94 1   
    94   93  100 1   
    95   94   95 1   
    96   94   97 1   
    97   94  101 1   
    98   95   96 2   
    99   95  109 1   
   100   97   98 1   
   101   97   99 1   
   102   97  102 1   
   103   98  103 1   
   104   98  104 1   
   105   98  105 1   
   106   99  106 1   
   107   99  107 1   
   108   99  108 1   
   109  109  110 1   
   110  109  117 1   
   111  110  111 1   
   112  110  113 1   
   113  110  118 1   
   114  111  112 2   
   115  111  123 1   
   116  113  114 1   
   117  113  119 1   
   118  113  120 1   
   119  114  115 1   
   120  114  116 2   
   121  115  121 1   
   122  115  122 1   
   123  123  124 1   
   124  123  135 1   
   125  124  125 1   
   126  124  127 1   
   127  124  136 1   
   128  125  126 2   
   129  125  144 1   
   130  127  128 1   
   131  127  137 1   
   132  127  138 1   
   133  128  129 ar  
   134  128  130 ar  
   135  129  131 ar  
   136  129  139 1   
   137  130  132 ar  
   138  130  140 1   
   139  131  133 ar  
   140  131  141 1   
   141  132  133 ar  
   142  132  142 1   
   143  133  134 1   
   144  134  143 1   
   145  144  145 1   
   146  144  153 1   
   147  145  146 1   
   148  145  148 1   
   149  145  154 1   
   150  146  147 2   
   151  146  159 1   
   152  148  149 1   
   153  148  155 1   
   154  148  156 1   
   155  149  150 1   
   156  149  157 1   
   157  149  158 1   
   158  150  151 1   
   159  150  152 1   
   160  159  160 1   
   161  159  168 1   
   162  160  161 1   
   163  160  163 1   
   164  160  169 1   
   165  161  162 2   
   166  161  174 1   
   167  163  164 1   
   168  163  170 1   
   169  163  171 1   
   170  164  165 1   
   171  164  172 1   
   172  164  173 1   
   173  165  166 1   
   174  165  167 1   
   175  174  175 1   
   176  174  179 1   
   177  175  176 1   
   178  175  177 1   
   179  175  178 1   
   180  181  182 1   
   181  181  183 1   
   182  184  185 1   
   183  184  186 1   
   184  187  188 1   
   185  187  189 1   
   186  190  191 1   
   187  190  192 1   
@<TRIPOS>SUBSTRUCTURE
     1 MOL         1 TEMP              0 ****  ****    0 ROOT
