@<TRIPOS>MOLECULE
MOL
  178   175     1     0     0
SMALL
resp


@<TRIPOS>ATOM
      1 C1          4.9580   -2.1420    3.1660 c3        1 MOL     -0.476927
      2 C2          6.0180   -1.1530    2.6600 c         1 MOL      0.603875
      3 O1          5.8070   -0.2720    1.7810 o         1 MOL     -0.563558
      4 H1          4.0540   -1.5980    3.4360 hc        1 MOL      0.135062
      5 H2          4.7290   -2.8620    2.3810 hc        1 MOL      0.135062
      6 H3          5.3400   -2.6680    4.0420 hc        1 MOL      0.135062
      7 N1          7.3230   -1.3660    3.0190 n         1 MOL     -0.488675
      8 C3          8.4120   -0.6610    2.4210 c3        1 MOL      0.182613
      9 C4          8.8540   -1.2420    1.0870 c         1 MOL      0.466318
     10 O2          9.2660   -2.4200    0.9590 o         1 MOL     -0.538129
     11 C5          9.6390   -0.6240    3.2930 c3        1 MOL     -0.291610
     12 C6         10.6740    0.3510    2.6260 c         1 MOL      0.814891
     13 O3         11.8300    0.0010    2.4870 o         1 MOL     -0.746921
     14 O4         10.4040    1.5390    2.4210 o         1 MOL     -0.746921
     15 H4          7.4000   -2.1740    3.6090 hn        1 MOL      0.297188
     16 H5          8.1230    0.3760    2.3020 h1        1 MOL      0.014919
     17 H6          9.9360   -1.6680    3.3420 hc        1 MOL      0.032410
     18 H7          9.3970   -0.2680    4.2930 hc        1 MOL      0.032410
     19 N2          8.6800   -0.4560    0.0340 n         1 MOL     -0.493018
     20 C7          8.7850   -1.0260   -1.3230 c3        1 MOL      0.287022
     21 C8          7.4080   -1.7220   -1.7610 c         1 MOL      0.306592
     22 O5          7.3710   -2.6020   -2.5680 o         1 MOL     -0.517253
     23 C9          9.2180    0.0600   -2.3280 c3        1 MOL     -0.336226
     24 H8          8.3210    0.4700    0.2370 hn        1 MOL      0.281620
     25 H9          9.6280   -1.7280   -1.3870 h1        1 MOL      0.081054
     26 H10        10.1800    0.5310   -2.1190 hc        1 MOL      0.083062
     27 H11         9.4580   -0.4500   -3.2560 hc        1 MOL      0.083062
     28 H12         8.4480    0.8270   -2.4200 hc        1 MOL      0.083062
     29 N3          6.3480   -1.4390   -1.0230 n         1 MOL     -0.290461
     30 C10         4.9620   -1.8910   -1.2660 c3        1 MOL      0.269453
     31 C11         4.4890   -1.3480   -2.6500 c         1 MOL      0.546401
     32 O6          4.1590   -2.1960   -3.4590 o         1 MOL     -0.515449
     33 C12         4.7350   -3.2830   -0.7300 c3        1 MOL     -0.275790
     34 C13         3.2750   -3.6540   -0.9390 c         1 MOL      0.754993
     35 O7          2.9340   -4.8320   -1.0340 o         1 MOL     -0.765695
     36 O8          2.4220   -2.7550   -1.0170 o         1 MOL     -0.765695
     37 H13         6.4400   -0.6280   -0.4230 hn        1 MOL      0.210679
     38 H14         4.3440   -1.2680   -0.6270 h1        1 MOL     -0.025998
     39 H15         4.8460   -3.3000    0.3600 hc        1 MOL      0.083423
     40 H16         5.4160   -3.9570   -1.2490 hc        1 MOL      0.083423
     41 N4          4.6090   -0.0380   -2.8440 n         1 MOL     -0.379847
     42 C14         4.5400    0.5650   -4.2150 c3        1 MOL     -0.063571
     43 C15         3.2830    1.5120   -4.3730 c         1 MOL      0.545377
     44 O9          3.2300    2.2520   -5.3490 o         1 MOL     -0.591726
     45 H17         4.8280    0.4650   -1.9950 hn        1 MOL      0.246326
     46 H18         4.3820   -0.2260   -4.9390 h1        1 MOL      0.082459
     47 H19         5.4720    1.0820   -4.4420 h1        1 MOL      0.082459
     48 N5          2.4150    1.6850   -3.3970 n         1 MOL     -0.371287
     49 C16         1.2510    2.6010   -3.3790 c3        1 MOL      0.167087
     50 C17         1.5690    3.8830   -2.6250 c         1 MOL      0.485253
     51 O10         2.2090    3.9200   -1.5660 o         1 MOL     -0.519663
     52 C18        -0.0560    1.8950   -2.8960 c3        1 MOL     -0.213491
     53 C19        -1.2940    2.2580   -3.6920 c         1 MOL      0.508254
     54 N6         -2.3560    1.5130   -3.5910 n         1 MOL     -0.628191
     55 O11        -1.2210    3.2770   -4.4410 o         1 MOL     -0.540074
     56 H20         2.5940    1.1200   -2.5820 hn        1 MOL      0.206204
     57 H21         1.0310    2.9910   -4.3630 h1        1 MOL      0.029895
     58 H22        -0.2550    2.2180   -1.8720 hc        1 MOL      0.130784
     59 H23         0.1870    0.8370   -2.8990 hc        1 MOL      0.130784
     60 H24        -2.1840    0.6540   -3.0820 hn        1 MOL      0.335824
     61 H25        -3.0720    1.5970   -4.2900 hn        1 MOL      0.335824
     62 N7          1.0120    5.0280   -3.0790 n         1 MOL     -0.408734
     63 C20         1.0080    6.2680   -2.2820 c3        1 MOL     -0.075739
     64 C21        -0.1100    6.2200   -1.2640 c         1 MOL      0.605590
     65 O12        -1.2480    5.8190   -1.6190 o         1 MOL     -0.520766
     66 H26         0.3420    4.8150   -3.7960 hn        1 MOL      0.287965
     67 H27         0.8220    7.0850   -2.9910 h1        1 MOL      0.081948
     68 H28         1.9580    6.4070   -1.7630 h1        1 MOL      0.081948
     69 N8          0.1270    6.7600   -0.0420 n         1 MOL     -0.499159
     70 C22        -0.8570    7.0580    1.0080 c3        1 MOL     -0.116010
     71 C23        -1.3490    5.8900    1.8760 c         1 MOL      0.453349
     72 O13        -2.4390    6.0480    2.3950 o         1 MOL     -0.568448
     73 C24        -0.2390    8.1470    1.8650 c3        1 MOL      0.434415
     74 C25         0.9540    7.6980    2.7290 c3        1 MOL     -0.379463
     75 O14         0.1990    9.1800    0.9850 oh        1 MOL     -0.643543
     76 H29         1.0660    7.1110    0.0970 hn        1 MOL      0.260464
     77 H30        -1.7210    7.4950    0.5150 h1        1 MOL      0.141411
     78 H31        -1.0470    8.6250    2.4150 h1        1 MOL      0.047850
     79 H32         1.0070    8.9300    0.5190 ho        1 MOL      0.371873
     80 H33         1.4230    8.5770    3.1740 hc        1 MOL      0.094535
     81 H34         0.4810    7.0580    3.4730 hc        1 MOL      0.094535
     82 H35         1.7430    7.1090    2.2730 hc        1 MOL      0.094535
     83 N9         -0.6610    4.7730    1.9710 n         1 MOL     -0.112749
     84 C26        -1.1660    3.4680    2.3530 c3        1 MOL     -0.044326
     85 C27        -0.9310    2.3540    1.3710 c         1 MOL      0.357614
     86 O15         0.1670    2.2010    0.8080 o         1 MOL     -0.470032
     87 C28        -0.7180    3.1210    3.7440 c3        1 MOL      0.062569
     88 C29         0.8020    2.8720    3.9470 c3        1 MOL      0.209680
     89 C30        -1.1710    4.2090    4.7460 c3        1 MOL     -0.186540
     90 C31         1.0280    1.8040    4.9430 c3        1 MOL     -0.164257
     91 H36         0.2880    4.8140    1.6100 hn        1 MOL      0.158580
     92 H37        -2.2490    3.5450    2.3570 h1        1 MOL      0.091899
     93 H38        -1.2520    2.1870    3.9310 hc        1 MOL     -0.006390
     94 H39         1.3160    3.8030    4.1680 hc        1 MOL     -0.010501
     95 H40         1.3450    2.5690    3.0500 hc        1 MOL     -0.010501
     96 H41        -2.2410    4.1690    4.9440 hc        1 MOL      0.032086
     97 H42        -0.7390    3.9500    5.7110 hc        1 MOL      0.032086
     98 H43        -0.8160    5.2060    4.4650 hc        1 MOL      0.032086
     99 H44         2.0940    1.6210    4.8290 hc        1 MOL      0.025445
    100 H45         0.8260    2.1880    5.9430 hc        1 MOL      0.025445
    101 H46         0.4970    0.8750    4.7360 hc        1 MOL      0.025445
    102 N10        -1.9780    1.4850    1.2460 n         1 MOL     -0.499643
    103 C32        -1.8370    0.2510    0.4110 c3        1 MOL      0.436775
    104 C33        -3.2410   -0.1570   -0.0990 c         1 MOL      0.298771
    105 O16        -3.7440   -1.3030    0.0970 o         1 MOL     -0.353356
    106 C34        -1.1300   -0.8240    1.2470 c3        1 MOL     -0.158613
    107 C35        -0.7850   -2.1080    0.4780 c         1 MOL      0.709971
    108 O17        -0.8620   -2.1380   -0.8000 o         1 MOL     -0.756622
    109 O18        -0.4200   -3.1020    1.0800 o         1 MOL     -0.756622
    110 H47        -2.8200    1.7170    1.7460 hn        1 MOL      0.284441
    111 H48        -1.2060    0.4760   -0.4470 h1        1 MOL     -0.076241
    112 H49        -1.8080   -1.1150    2.0510 hc        1 MOL      0.067409
    113 H50        -0.2120   -0.5000    1.7380 hc        1 MOL      0.067409
    114 N11        -4.0350    0.8020   -0.6410 n         1 MOL     -0.363988
    115 C36        -5.4000    0.6060   -0.9620 c3        1 MOL      0.099801
    116 C37        -6.1490   -0.3110    0.0360 c         1 MOL      0.402725
    117 O19        -6.0960   -0.1190    1.3000 o         1 MOL     -0.545797
    118 C38        -5.9590    2.0080   -1.2600 c3        1 MOL     -0.158669
    119 C39        -7.4420    1.9030   -1.4740 ca        1 MOL      0.090566
    120 C40        -7.9860    1.7090   -2.7130 ca        1 MOL     -0.245626
    121 C41        -8.3420    1.9230   -0.3150 ca        1 MOL     -0.245626
    122 C42        -9.3930    1.4200   -2.7550 ca        1 MOL      0.012951
    123 C43        -9.6920    1.5190   -0.3970 ca        1 MOL      0.012951
    124 C44       -10.2260    1.2780   -1.6530 ca        1 MOL     -0.231863
    125 H51        -3.5770    1.6850   -0.7820 hn        1 MOL      0.226387
    126 H52        -5.4070    0.1210   -1.9390 h1        1 MOL      0.045312
    127 H53        -5.5440    2.4000   -2.1880 hc        1 MOL      0.096454
    128 H54        -5.7130    2.6710   -0.4260 hc        1 MOL      0.096454
    129 H55        -7.4110    1.5500   -3.6060 ha        1 MOL      0.156228
    130 H56        -7.9700    2.2190    0.6550 ha        1 MOL      0.156228
    131 H57        -9.8350    1.4260   -3.7380 ha        1 MOL      0.076087
    132 H58       -10.3740    1.4650    0.4320 ha        1 MOL      0.076087
    133 H59       -11.2930    1.1450   -1.7160 ha        1 MOL      0.136526
    134 N12        -6.8800   -1.3330   -0.3190 n         1 MOL     -0.273139
    135 C45        -7.7490   -2.1630    0.6090 c3        1 MOL      0.204325
    136 C46        -6.9430   -3.0120    1.6560 c         1 MOL      0.302196
    137 O20        -7.5110   -3.4130    2.5580 o         1 MOL     -0.514435
    138 C47        -8.5540   -3.0220   -0.3280 c3        1 MOL     -0.026186
    139 C48        -8.6570   -2.1320   -1.5530 c3        1 MOL     -0.156579
    140 C49        -7.2680   -1.5700   -1.6950 c3        1 MOL      0.232460
    141 H60        -8.3580   -1.4790    1.2030 h1        1 MOL      0.079964
    142 H61        -7.9740   -3.9020   -0.6100 hc        1 MOL      0.036387
    143 H62        -9.5190   -3.2560    0.1200 hc        1 MOL      0.036387
    144 H63        -8.8050   -2.6960   -2.4660 hc        1 MOL      0.025823
    145 H64        -9.3030   -1.2570   -1.4500 hc        1 MOL      0.025823
    146 H65        -6.6500   -2.3200   -2.1830 h1        1 MOL     -0.011785
    147 H66        -7.3160   -0.6880   -2.3300 h1        1 MOL     -0.011785
    148 N13        -5.5890   -3.0910    1.6770 n         1 MOL     -0.061240
    149 C50        -4.7480   -4.0690    2.3940 c3        1 MOL     -0.092422
    150 C51        -4.2560   -3.5990    3.8030 c         1 MOL      0.354736
    151 O21        -3.9080   -4.3760    4.7020 o         1 MOL     -0.536461
    152 C52        -3.5320   -4.4460    1.5460 c3        1 MOL      0.242623
    153 C53        -3.8090   -5.3980    0.4100 c3        1 MOL     -0.287020
    154 C54        -2.5570   -5.4180   -0.4300 c         1 MOL      0.763544
    155 O22        -2.3830   -4.9120   -1.5720 o         1 MOL     -0.768771
    156 O23        -1.5600   -6.0000    0.0600 o         1 MOL     -0.768771
    157 H67        -5.0950   -2.3840    1.1580 hn        1 MOL     -0.012257
    158 H68        -5.2620   -5.0130    2.5260 h1        1 MOL      0.108790
    159 H69        -2.8800   -5.0340    2.1800 hc        1 MOL     -0.034023
    160 H70        -2.9010   -3.6410    1.1600 hc        1 MOL     -0.034023
    161 H71        -4.6660   -4.9490   -0.0850 hc        1 MOL      0.045589
    162 H72        -4.1840   -6.3500    0.7660 hc        1 MOL      0.045589
    163 N14        -4.2700   -2.3100    3.9460 n         1 MOL     -0.091152
    164 C55        -3.9580   -1.5800    5.1880 c3        1 MOL     -0.317701
    165 H73        -4.0550   -2.2550    6.0390 h1        1 MOL      0.117090
    166 H74        -2.9380   -1.2010    5.1410 h1        1 MOL      0.117090
    167 H75        -4.6510   -0.7470    5.3040 h1        1 MOL      0.117090
    168 H76        -4.5740   -1.7130    3.1930 hn        1 MOL      0.227488
    169 Ca1         0.2920   -4.4690   -0.9820 Ca        1 MOL      1.762245
    170 O24         0.2460   -3.9480   -3.5500 oh        1 MOL     -0.816788
    171 H77        -0.2390   -4.6070   -4.0540 ho        1 MOL      0.402634
    172 H78         0.7740   -3.4880   -4.2080 ho        1 MOL      0.402634
    173 O25         1.0030   -6.0070    1.0620 oh        1 MOL     -0.816788
    174 H79         0.0950   -6.2510    1.2250 ho        1 MOL      0.402634
    175 H80         1.4380   -6.0960    1.9080 ho        1 MOL      0.402634
    176 O26         0.7710   -6.6600   -2.4140 oh        1 MOL     -0.816788
    177 H81         0.6360   -7.1130   -3.2390 ho        1 MOL      0.402634
    178 H82         1.1950   -7.2990   -1.8480 ho        1 MOL      0.402634
@<TRIPOS>BOND
     1    1    2 1   
     2    1    4 1   
     3    1    5 1   
     4    1    6 1   
     5    2    3 2   
     6    2    7 1   
     7    7    8 1   
     8    7   15 1   
     9    8    9 1   
    10    8   11 1   
    11    8   16 1   
    12    9   10 2   
    13    9   19 1   
    14   11   12 1   
    15   11   17 1   
    16   11   18 1   
    17   12   13 1   
    18   12   14 1   
    19   19   20 1   
    20   19   24 1   
    21   20   21 1   
    22   20   23 1   
    23   20   25 1   
    24   21   22 2   
    25   21   29 1   
    26   23   26 1   
    27   23   27 1   
    28   23   28 1   
    29   29   30 1   
    30   29   37 1   
    31   30   31 1   
    32   30   33 1   
    33   30   38 1   
    34   31   32 2   
    35   31   41 1   
    36   33   34 1   
    37   33   39 1   
    38   33   40 1   
    39   34   35 1   
    40   34   36 1   
    41   41   42 1   
    42   41   45 1   
    43   42   43 1   
    44   42   46 1   
    45   42   47 1   
    46   43   44 2   
    47   43   48 1   
    48   48   49 1   
    49   48   56 1   
    50   49   50 1   
    51   49   52 1   
    52   49   57 1   
    53   50   51 2   
    54   50   62 1   
    55   52   53 1   
    56   52   58 1   
    57   52   59 1   
    58   53   54 1   
    59   53   55 2   
    60   54   60 1   
    61   54   61 1   
    62   62   63 1   
    63   62   66 1   
    64   63   64 1   
    65   63   67 1   
    66   63   68 1   
    67   64   65 2   
    68   64   69 1   
    69   69   70 1   
    70   69   76 1   
    71   70   71 1   
    72   70   73 1   
    73   70   77 1   
    74   71   72 2   
    75   71   83 1   
    76   73   74 1   
    77   73   75 1   
    78   73   78 1   
    79   74   80 1   
    80   74   81 1   
    81   74   82 1   
    82   75   79 1   
    83   83   84 1   
    84   83   91 1   
    85   84   85 1   
    86   84   87 1   
    87   84   92 1   
    88   85   86 2   
    89   85  102 1   
    90   87   88 1   
    91   87   89 1   
    92   87   93 1   
    93   88   90 1   
    94   88   94 1   
    95   88   95 1   
    96   89   96 1   
    97   89   97 1   
    98   89   98 1   
    99   90   99 1   
   100   90  100 1   
   101   90  101 1   
   102  102  103 1   
   103  102  110 1   
   104  103  104 1   
   105  103  106 1   
   106  103  111 1   
   107  104  105 2   
   108  104  114 1   
   109  106  107 1   
   110  106  112 1   
   111  106  113 1   
   112  107  108 1   
   113  107  109 1   
   114  114  115 1   
   115  114  125 1   
   116  115  116 1   
   117  115  118 1   
   118  115  126 1   
   119  116  117 2   
   120  116  134 1   
   121  118  119 1   
   122  118  127 1   
   123  118  128 1   
   124  119  120 ar  
   125  119  121 ar  
   126  120  122 ar  
   127  120  129 1   
   128  121  123 ar  
   129  121  130 1   
   130  122  124 ar  
   131  122  131 1   
   132  123  124 ar  
   133  123  132 1   
   134  124  133 1   
   135  134  135 1   
   136  134  140 1   
   137  135  136 1   
   138  135  138 1   
   139  135  141 1   
   140  136  137 2   
   141  136  148 1   
   142  138  139 1   
   143  138  142 1   
   144  138  143 1   
   145  139  140 1   
   146  139  144 1   
   147  139  145 1   
   148  140  146 1   
   149  140  147 1   
   150  148  149 1   
   151  148  157 1   
   152  149  150 1   
   153  149  152 1   
   154  149  158 1   
   155  150  151 2   
   156  150  163 1   
   157  152  153 1   
   158  152  159 1   
   159  152  160 1   
   160  153  154 1   
   161  153  161 1   
   162  153  162 1   
   163  154  155 1   
   164  154  156 1   
   165  163  164 1   
   166  163  168 1   
   167  164  165 1   
   168  164  166 1   
   169  164  167 1   
   170  170  171 1   
   171  170  172 1   
   172  173  174 1   
   173  173  175 1   
   174  176  177 1   
   175  176  178 1   
@<TRIPOS>SUBSTRUCTURE
     1 MOL         1 TEMP              0 ****  ****    0 ROOT
