@<TRIPOS>MOLECULE
MOL
  178   175     1     0     0
SMALL
resp


@<TRIPOS>ATOM
      1 C1         -5.3010    7.4540    1.9050 c3        1 MOL     -0.365108
      2 C2         -6.3610    6.6900    1.0540 c         1 MOL      0.686807
      3 O1         -6.5140    7.0270   -0.1310 o         1 MOL     -0.559894
      4 H1         -4.6770    8.0600    1.2480 hc        1 MOL      0.092066
      5 H2         -5.8070    8.1010    2.6220 hc        1 MOL      0.092066
      6 H3         -4.6770    6.7370    2.4400 hc        1 MOL      0.092066
      7 N1         -7.2510    5.8270    1.6180 n         1 MOL     -0.641249
      8 C3         -8.2460    5.1420    0.8500 c3        1 MOL      0.387262
      9 C4         -7.7980    4.0440   -0.1610 c         1 MOL      0.372865
     10 O2         -8.2070    2.9270   -0.1110 o         1 MOL     -0.379446
     11 C5         -9.3400    4.5620    1.7300 c3        1 MOL     -0.310214
     12 C6        -10.6640    4.1470    1.0380 c         1 MOL      0.637124
     13 O3        -11.0980    4.9020    0.0940 o         1 MOL     -0.701645
     14 O4        -11.2050    2.9970    1.3320 o         1 MOL     -0.701645
     15 H4         -7.0350    5.3800    2.4950 hn        1 MOL      0.310646
     16 H5         -8.7200    5.9310    0.2620 h1        1 MOL      0.009931
     17 H6         -9.5120    5.2120    2.5820 hc        1 MOL      0.028106
     18 H7         -8.8220    3.7290    2.2110 hc        1 MOL      0.028106
     19 N2         -6.9760    4.4530   -1.1130 n         1 MOL     -0.527408
     20 C7         -6.2250    3.6960   -2.1200 c3        1 MOL      0.681217
     21 C8         -4.7230    3.6520   -2.0100 c         1 MOL      0.254943
     22 O5         -4.1260    4.5120   -1.3780 o         1 MOL     -0.512605
     23 C9         -6.5540    4.2140   -3.5520 c3        1 MOL     -0.447704
     24 H8         -6.6290    5.3960   -1.0080 hn        1 MOL      0.215883
     25 H9         -6.6330    2.6870   -2.0880 h1        1 MOL     -0.048763
     26 H10        -6.0830    3.6740   -4.3690 hc        1 MOL      0.096355
     27 H11        -7.6320    4.3420   -3.6520 hc        1 MOL      0.096355
     28 H12        -6.0700    5.2000   -3.5130 hc        1 MOL      0.096355
     29 N3         -3.9690    2.6520   -2.5320 n         1 MOL     -0.313812
     30 C10        -4.4960    1.3940   -3.0180 c3        1 MOL     -0.126957
     31 C11        -4.9850    0.3790   -1.9130 c         1 MOL      0.476731
     32 O6         -4.8880    0.5980   -0.7320 o         1 MOL     -0.449546
     33 C12        -3.3090    0.7970   -3.9160 c3        1 MOL     -0.058621
     34 C13        -2.0890    0.3130   -3.0740 c         1 MOL      0.573695
     35 O7         -1.9520   -0.9160   -2.8160 o         1 MOL     -0.703792
     36 O8         -1.4540    1.2130   -2.4710 o         1 MOL     -0.703792
     37 H13        -2.9670    2.7370   -2.6350 hn        1 MOL      0.311544
     38 H14        -5.3020    1.6460   -3.7110 h1        1 MOL      0.060110
     39 H15        -3.0200    1.6180   -4.5820 hc        1 MOL      0.027115
     40 H16        -3.6690   -0.0050   -4.5580 hc        1 MOL      0.027115
     41 N4         -5.5040   -0.7890   -2.3800 n         1 MOL     -0.425451
     42 C14        -6.0250   -1.8250   -1.4830 c3        1 MOL     -0.198419
     43 C15        -7.4610   -1.5970   -0.9440 c         1 MOL      0.713090
     44 O9         -8.0510   -0.5550   -1.1480 o         1 MOL     -0.519470
     45 H17        -5.5130   -0.9740   -3.3780 hn        1 MOL      0.316875
     46 H18        -5.3740   -1.8450   -0.6080 h1        1 MOL      0.107873
     47 H19        -6.0540   -2.7660   -2.0320 h1        1 MOL      0.107873
     48 N5         -8.0390   -2.6040   -0.3410 n         1 MOL     -0.672881
     49 C16        -7.5130   -3.7810    0.3120 c3        1 MOL      0.262836
     50 C17        -6.5860   -3.4130    1.4110 c         1 MOL      0.588219
     51 O10        -6.8040   -2.5060    2.2380 o         1 MOL     -0.547471
     52 C18        -8.6720   -4.7060    0.7550 c3        1 MOL     -0.349749
     53 C19        -8.3070   -5.7940    1.7080 c         1 MOL      0.562922
     54 N6         -9.1270   -6.0420    2.6640 n         1 MOL     -0.668704
     55 O11        -7.2100   -6.2980    1.7900 o         1 MOL     -0.525644
     56 H20        -9.0440   -2.5670   -0.3060 hn        1 MOL      0.335019
     57 H21        -6.9290   -4.2820   -0.4630 h1        1 MOL     -0.009526
     58 H22        -9.1220   -5.1470   -0.1370 hc        1 MOL      0.112981
     59 H23        -9.4620   -4.1110    1.2080 hc        1 MOL      0.112981
     60 H24       -10.1270   -5.8980    2.5480 hn        1 MOL      0.328649
     61 H25        -8.8270   -6.6990    3.3710 hn        1 MOL      0.328649
     62 N7         -5.4200   -4.0470    1.4990 n         1 MOL     -0.144620
     63 C20        -4.1340   -3.6240    2.0990 c3        1 MOL     -0.511064
     64 C21        -2.9490   -4.4920    1.7380 c         1 MOL      0.780273
     65 O12        -2.8860   -5.6090    2.1670 o         1 MOL     -0.582611
     66 H26        -5.2650   -4.8160    0.8740 hn        1 MOL      0.159031
     67 H27        -4.2760   -3.5410    3.1720 h1        1 MOL      0.166708
     68 H28        -3.8830   -2.6070    1.7940 h1        1 MOL      0.166708
     69 N8         -1.9700   -3.9840    1.0710 n         1 MOL     -0.457208
     70 C22        -0.6420   -4.6170    0.8550 c3        1 MOL     -0.067983
     71 C23         0.4680   -3.5490    1.1370 c         1 MOL      0.432512
     72 O13         0.1990   -2.3520    0.8460 o         1 MOL     -0.567755
     73 C24        -0.4640   -5.3180   -0.5190 c3        1 MOL      0.382117
     74 C25        -1.1630   -6.5860   -0.7140 c3        1 MOL     -0.300436
     75 O14        -0.7760   -4.4790   -1.5890 oh        1 MOL     -0.599314
     76 H29        -2.1110   -3.0830    0.6360 hn        1 MOL      0.286945
     77 H30        -0.5880   -5.2990    1.7040 h1        1 MOL      0.050948
     78 H31         0.6100   -5.4790   -0.5960 h1        1 MOL     -0.000210
     79 H32        -0.1270   -3.7710   -1.6510 ho        1 MOL      0.327872
     80 H33        -1.2790   -7.1970    0.1760 hc        1 MOL      0.071970
     81 H34        -2.1290   -6.5700   -1.2190 hc        1 MOL      0.071970
     82 H35        -0.5860   -7.2060   -1.4010 hc        1 MOL      0.071970
     83 N9          1.6850   -3.8860    1.5750 n         1 MOL     -0.190610
     84 C26         2.8130   -2.9860    1.7840 c3        1 MOL      0.120968
     85 C27         3.8270   -3.3940    0.6900 c         1 MOL      0.247431
     86 O15         4.2560   -4.5090    0.5920 o         1 MOL     -0.487982
     87 C28         3.3710   -3.0790    3.2190 c3        1 MOL      0.244223
     88 C29         3.7560   -1.7080    3.7980 c3        1 MOL     -0.065501
     89 C30         2.3030   -3.7440    4.1810 c3        1 MOL     -0.415404
     90 C31         4.8310   -1.0140    2.9710 c3        1 MOL     -0.189771
     91 H36         1.7870   -4.8880    1.6180 hn        1 MOL      0.202707
     92 H37         2.4660   -1.9760    1.5970 h1        1 MOL     -0.002626
     93 H38         4.2730   -3.6980    3.2020 hc        1 MOL     -0.024587
     94 H39         4.0320   -1.8900    4.8370 hc        1 MOL      0.024066
     95 H40         2.8440   -1.1280    3.9080 hc        1 MOL      0.024066
     96 H41         1.3380   -3.2430    4.0680 hc        1 MOL      0.087536
     97 H42         2.1760   -4.8080    4.0280 hc        1 MOL      0.087536
     98 H43         2.6520   -3.6600    5.2100 hc        1 MOL      0.087536
     99 H44         5.5470   -1.7520    2.6170 hc        1 MOL      0.046816
    100 H45         4.3580   -0.5020    2.1230 hc        1 MOL      0.046816
    101 H46         5.2920   -0.2310    3.5740 hc        1 MOL      0.046816
    102 N10         4.0090   -2.3860   -0.2810 n         1 MOL     -0.026286
    103 C32         4.5690   -2.7550   -1.6360 c3        1 MOL     -0.002219
    104 C33         5.8480   -1.9160   -2.0730 c         1 MOL      0.508534
    105 O16         6.2200   -1.7550   -3.2360 o         1 MOL     -0.539473
    106 C34         3.4410   -2.6640   -2.6590 c3        1 MOL     -0.051164
    107 C35         2.1080   -3.4080   -2.2740 c         1 MOL      0.596010
    108 O17         2.0740   -4.6280   -2.5830 o         1 MOL     -0.611802
    109 O18         1.1400   -2.7780   -1.7480 o         1 MOL     -0.611802
    110 H47         3.4570   -1.5450   -0.2320 hn        1 MOL      0.184289
    111 H48         4.9030   -3.8000   -1.5600 h1        1 MOL      0.048959
    112 H49         3.8370   -2.9410   -3.6420 hc        1 MOL     -0.007194
    113 H50         3.1840   -1.6070   -2.6590 hc        1 MOL     -0.007194
    114 N11         6.3540   -1.2320   -1.0440 n         1 MOL     -0.449441
    115 C36         7.5690   -0.4630   -1.1340 c3        1 MOL      0.213683
    116 C37         7.6470    0.6190   -0.0970 c         1 MOL      0.574365
    117 O19         7.3090    0.3590    1.0650 o         1 MOL     -0.569532
    118 C38         8.7710   -1.3670   -1.0490 c3        1 MOL     -0.284265
    119 C39        10.1180   -0.7460   -0.6620 ca        1 MOL      0.112191
    120 C40        10.4270   -0.2300    0.5960 ca        1 MOL     -0.166520
    121 C41        11.0480   -0.6470   -1.6760 ca        1 MOL     -0.166520
    122 C42        11.7060    0.3370    0.9130 ca        1 MOL     -0.098983
    123 C43        12.2480    0.0430   -1.4380 ca        1 MOL     -0.098983
    124 C44        12.6020    0.4670   -0.1680 ca        1 MOL     -0.135163
    125 H51         5.9060   -1.5210   -0.1820 hn        1 MOL      0.178513
    126 H52         7.6150   -0.1010   -2.1620 h1        1 MOL      0.044986
    127 H53         8.8540   -1.9060   -1.9930 hc        1 MOL      0.108610
    128 H54         8.5860   -2.1150   -0.2690 hc        1 MOL      0.108610
    129 H55         9.6800   -0.3290    1.3770 ha        1 MOL      0.117992
    130 H56        10.8390   -1.0540   -2.6530 ha        1 MOL      0.117992
    131 H57        11.8910    0.5210    1.9610 ha        1 MOL      0.106987
    132 H58        12.8240    0.2120   -2.3340 ha        1 MOL      0.106987
    133 H59        13.6170    0.7990   -0.0140 ha        1 MOL      0.099078
    134 N12         7.9840    1.8420   -0.4960 n         1 MOL     -0.234287
    135 C45         8.4250    2.8910    0.3900 c3        1 MOL      0.056665
    136 C46         7.2190    3.7470    0.8640 c         1 MOL      0.527499
    137 O20         7.2760    4.9360    0.8420 o         1 MOL     -0.539130
    138 C47         9.4760    3.6760   -0.3790 c3        1 MOL      0.010661
    139 C48         8.9020    3.5880   -1.7930 c3        1 MOL     -0.096208
    140 C49         8.4040    2.1760   -1.8610 c3        1 MOL      0.015453
    141 H60         8.8990    2.5390    1.3010 h1        1 MOL      0.042300
    142 H61         9.5960    4.6860    0.0060 hc        1 MOL      0.011898
    143 H62        10.3990    3.1100   -0.2750 hc        1 MOL      0.011898
    144 H63         8.0630    4.2810   -1.8620 hc        1 MOL      0.053838
    145 H64         9.6020    3.9430   -2.5380 hc        1 MOL      0.053838
    146 H65         7.6570    1.9800   -2.6270 h1        1 MOL      0.039384
    147 H66         9.2230    1.5630   -2.2370 h1        1 MOL      0.039384
    148 N13         6.1190    3.1050    1.2990 n         1 MOL     -0.324903
    149 C50         4.7540    3.7890    1.5090 c3        1 MOL     -0.216470
    150 C51         4.6430    4.6510    2.7470 c         1 MOL      0.446121
    151 O21         3.6820    5.3420    2.9650 o         1 MOL     -0.511482
    152 C52         3.7100    2.7360    1.3820 c3        1 MOL      0.174111
    153 C53         3.7990    1.9330    0.0480 c3        1 MOL     -0.079162
    154 C54         2.5430    1.1310   -0.3440 c         1 MOL      0.720667
    155 O22         1.5680    1.7130   -0.7530 o         1 MOL     -0.721313
    156 O23         2.4880   -0.1050   -0.2040 o         1 MOL     -0.721313
    157 H67         6.2260    2.0940    1.3140 hn        1 MOL      0.183085
    158 H68         4.6120    4.3940    0.6100 h1        1 MOL      0.172777
    159 H69         2.6880    3.1020    1.4950 hc        1 MOL      0.006997
    160 H70         3.9130    2.0650    2.2210 hc        1 MOL      0.006997
    161 H71         4.6320    1.2410    0.0640 hc        1 MOL     -0.021745
    162 H72         4.1010    2.6230   -0.7410 hc        1 MOL     -0.021745
    163 N14         5.6300    4.6500    3.6460 n         1 MOL     -0.118413
    164 C55         5.6990    5.4680    4.8440 c3        1 MOL     -0.303296
    165 H73         5.1570    4.9760    5.6510 h1        1 MOL      0.118016
    166 H74         6.7410    5.6010    5.1340 h1        1 MOL      0.118016
    167 H75         5.2490    6.4420    4.6460 h1        1 MOL      0.118016
    168 H76         6.3870    4.0490    3.3400 hn        1 MOL      0.158413
    169 Ca1         0.0010   -0.5720   -1.0510 Ca        1 MOL      1.724612
    170 O24         1.2500   -0.1490   -3.4720 oh        1 MOL     -0.810447
    171 H77         1.7530   -0.5540   -4.1760 ho        1 MOL      0.406357
    172 H78         1.0770    0.7470   -3.7920 ho        1 MOL      0.406357
    173 O25        -2.5520   -1.0960   -0.0770 oh        1 MOL     -0.810447
    174 H79        -2.9580   -0.3550    0.3760 ho        1 MOL      0.406357
    175 H80        -3.0160   -1.1570   -0.9140 ho        1 MOL      0.406357
    176 O26        -0.5090    1.0450    1.2640 oh        1 MOL     -0.810447
    177 H81        -1.2920    1.4750    0.9090 ho        1 MOL      0.406357
    178 H82        -0.1200    1.7070    1.8340 ho        1 MOL      0.406357
@<TRIPOS>BOND
     1    1    2 1   
     2    1    4 1   
     3    1    5 1   
     4    1    6 1   
     5    2    3 2   
     6    2    7 1   
     7    7    8 1   
     8    7   15 1   
     9    8    9 1   
    10    8   11 1   
    11    8   16 1   
    12    9   10 2   
    13    9   19 1   
    14   11   12 1   
    15   11   17 1   
    16   11   18 1   
    17   12   13 1   
    18   12   14 1   
    19   19   20 1   
    20   19   24 1   
    21   20   21 1   
    22   20   23 1   
    23   20   25 1   
    24   21   22 2   
    25   21   29 1   
    26   23   26 1   
    27   23   27 1   
    28   23   28 1   
    29   29   30 1   
    30   29   37 1   
    31   30   31 1   
    32   30   33 1   
    33   30   38 1   
    34   31   32 2   
    35   31   41 1   
    36   33   34 1   
    37   33   39 1   
    38   33   40 1   
    39   34   35 1   
    40   34   36 1   
    41   41   42 1   
    42   41   45 1   
    43   42   43 1   
    44   42   46 1   
    45   42   47 1   
    46   43   44 2   
    47   43   48 1   
    48   48   49 1   
    49   48   56 1   
    50   49   50 1   
    51   49   52 1   
    52   49   57 1   
    53   50   51 2   
    54   50   62 1   
    55   52   53 1   
    56   52   58 1   
    57   52   59 1   
    58   53   54 1   
    59   53   55 2   
    60   54   60 1   
    61   54   61 1   
    62   62   63 1   
    63   62   66 1   
    64   63   64 1   
    65   63   67 1   
    66   63   68 1   
    67   64   65 2   
    68   64   69 1   
    69   69   70 1   
    70   69   76 1   
    71   70   71 1   
    72   70   73 1   
    73   70   77 1   
    74   71   72 2   
    75   71   83 1   
    76   73   74 1   
    77   73   75 1   
    78   73   78 1   
    79   74   80 1   
    80   74   81 1   
    81   74   82 1   
    82   75   79 1   
    83   83   84 1   
    84   83   91 1   
    85   84   85 1   
    86   84   87 1   
    87   84   92 1   
    88   85   86 2   
    89   85  102 1   
    90   87   88 1   
    91   87   89 1   
    92   87   93 1   
    93   88   90 1   
    94   88   94 1   
    95   88   95 1   
    96   89   96 1   
    97   89   97 1   
    98   89   98 1   
    99   90   99 1   
   100   90  100 1   
   101   90  101 1   
   102  102  103 1   
   103  102  110 1   
   104  103  104 1   
   105  103  106 1   
   106  103  111 1   
   107  104  105 2   
   108  104  114 1   
   109  106  107 1   
   110  106  112 1   
   111  106  113 1   
   112  107  108 1   
   113  107  109 1   
   114  114  115 1   
   115  114  125 1   
   116  115  116 1   
   117  115  118 1   
   118  115  126 1   
   119  116  117 2   
   120  116  134 1   
   121  118  119 1   
   122  118  127 1   
   123  118  128 1   
   124  119  120 ar  
   125  119  121 ar  
   126  120  122 ar  
   127  120  129 1   
   128  121  123 ar  
   129  121  130 1   
   130  122  124 ar  
   131  122  131 1   
   132  123  124 ar  
   133  123  132 1   
   134  124  133 1   
   135  134  135 1   
   136  134  140 1   
   137  135  136 1   
   138  135  138 1   
   139  135  141 1   
   140  136  137 2   
   141  136  148 1   
   142  138  139 1   
   143  138  142 1   
   144  138  143 1   
   145  139  140 1   
   146  139  144 1   
   147  139  145 1   
   148  140  146 1   
   149  140  147 1   
   150  148  149 1   
   151  148  157 1   
   152  149  150 1   
   153  149  152 1   
   154  149  158 1   
   155  150  151 2   
   156  150  163 1   
   157  152  153 1   
   158  152  159 1   
   159  152  160 1   
   160  153  154 1   
   161  153  161 1   
   162  153  162 1   
   163  154  155 1   
   164  154  156 1   
   165  163  164 1   
   166  163  168 1   
   167  164  165 1   
   168  164  166 1   
   169  164  167 1   
   170  170  171 1   
   171  170  172 1   
   172  173  174 1   
   173  173  175 1   
   174  176  177 1   
   175  176  178 1   
@<TRIPOS>SUBSTRUCTURE
     1 MOL         1 TEMP              0 ****  ****    0 ROOT
