@<TRIPOS>MOLECULE
MOL
  186   183     1     0     0
SMALL
resp


@<TRIPOS>ATOM
      1 C1          9.1370   -0.6440    2.6300 c3        1 MOL     -0.595392
      2 C2          8.1110   -0.3860    1.5620 c         1 MOL      0.787987
      3 O1          6.9050   -0.1560    1.7910 o         1 MOL     -0.645192
      4 H1          8.8960   -1.5720    3.1480 hc        1 MOL      0.155852
      5 H2         10.1230   -0.7280    2.1740 hc        1 MOL      0.155852
      6 H3          9.1360    0.1800    3.3440 hc        1 MOL      0.155852
      7 N1          8.5620   -0.3960    0.3100 n         1 MOL     -0.570458
      8 C3          7.7900    0.0060   -0.8520 c3        1 MOL      0.142790
      9 C4          7.1420   -1.2260   -1.5530 c         1 MOL      0.482337
     10 O2          7.3100   -1.4970   -2.7400 o         1 MOL     -0.509242
     11 C5          8.6730    0.6620   -1.8820 c3        1 MOL     -0.329538
     12 C6          9.2030    1.9800   -1.4070 c         1 MOL      0.720489
     13 O3         10.2510    2.3970   -2.0100 o         1 MOL     -0.649016
     14 O4          8.7110    2.6410   -0.4710 o         1 MOL     -0.649016
     15 H4          9.5340   -0.5960    0.1460 hn        1 MOL      0.326771
     16 H5          6.9800    0.6820   -0.6000 h1        1 MOL      0.109627
     17 H6          8.0870    0.9850   -2.7480 hc        1 MOL      0.100494
     18 H7          9.4540    0.0020   -2.2620 hc        1 MOL      0.100494
     19 N2          6.5350   -2.0930   -0.7550 n         1 MOL     -0.291396
     20 C7          6.0460   -3.3930   -1.2550 c3        1 MOL      0.151054
     21 C8          4.6420   -3.1910   -2.0310 c         1 MOL      0.377696
     22 O5          4.3460   -3.7650   -3.0820 o         1 MOL     -0.544025
     23 C9          6.0570   -4.4570   -0.1500 c3        1 MOL     -0.194888
     24 C10         7.5490   -4.9090    0.0210 c3        1 MOL      0.246996
     25 C11         7.5610   -5.9360    1.2030 c3        1 MOL     -0.228702
     26 C12         8.9470   -6.3250    1.6950 c3        1 MOL      0.230029
     27 N3          8.9760   -7.5130    2.6180 n4        1 MOL     -0.289360
     28 H8          6.3840   -1.8580    0.2180 hn        1 MOL      0.133986
     29 H9          6.6790   -3.7620   -2.0560 h1        1 MOL      0.042013
     30 H10         5.3170   -5.2350   -0.3620 hc        1 MOL      0.055537
     31 H11         5.7640   -3.9620    0.7730 hc        1 MOL      0.055537
     32 H12         8.1430   -4.0360    0.2750 hc        1 MOL     -0.035744
     33 H13         7.9900   -5.3670   -0.8720 hc        1 MOL     -0.035744
     34 H14         7.1780   -6.8690    0.7780 hc        1 MOL      0.066953
     35 H15         6.8890   -5.6240    1.9960 hc        1 MOL      0.066953
     36 H16         9.2920   -5.4780    2.2910 hx        1 MOL      0.010142
     37 H17         9.6210   -6.4270    0.8350 hx        1 MOL      0.010142
     38 H18         8.5290   -8.3240    2.2020 hn        1 MOL      0.239894
     39 H19         9.9190   -7.7880    2.8340 hn        1 MOL      0.239894
     40 H20         8.6160   -7.2930    3.5400 hn        1 MOL      0.239894
     41 N4          3.7110   -2.4810   -1.4630 n         1 MOL     -0.059844
     42 C13         3.5580   -1.9290   -0.0540 c3        1 MOL     -0.428520
     43 C14         3.4780   -0.3970   -0.1970 c         1 MOL      0.481379
     44 O6          2.8590    0.1000   -1.1380 o         1 MOL     -0.544125
     45 C15         2.3220   -2.4970    0.7190 c3        1 MOL     -0.100661
     46 C16         1.0270   -2.6710   -0.0810 c         1 MOL      0.708553
     47 O7          0.6560   -1.7120   -0.8520 o         1 MOL     -0.683605
     48 O8          0.3330   -3.6760    0.1300 o         1 MOL     -0.683605
     49 H21         2.9120   -2.2590   -2.0510 hn        1 MOL      0.253398
     50 H22         4.4340   -2.2460    0.5150 h1        1 MOL      0.196347
     51 H23         2.0460   -1.7880    1.4970 hc        1 MOL      0.048639
     52 H24         2.6510   -3.3500    1.3090 hc        1 MOL      0.048639
     53 N5          4.1300    0.2960    0.6880 n         1 MOL     -0.309846
     54 C17         4.2110    1.7830    0.7240 c3        1 MOL      0.059714
     55 C18         3.0970    2.6320    0.0820 c         1 MOL      0.707931
     56 O9          1.9320    2.2550    0.3100 o         1 MOL     -0.687800
     57 H25         4.8450   -0.1570    1.2420 hn        1 MOL      0.265364
     58 H26         5.2180    2.0260    0.3910 h1        1 MOL      0.046080
     59 H27         4.0830    2.0670    1.7690 h1        1 MOL      0.046080
     60 N6          3.4040    3.8300   -0.4630 n         1 MOL     -0.666108
     61 C19         2.3360    4.6840   -1.0450 c3        1 MOL      0.519450
     62 C20         2.4660    6.2240   -0.7410 c         1 MOL      0.349239
     63 O10         3.5450    6.7810   -0.7220 o         1 MOL     -0.508585
     64 C21         2.4370    4.6390   -2.5630 c3        1 MOL     -0.120709
     65 C22         2.2430    3.1870   -2.9220 c         1 MOL      0.547541
     66 O11         3.1940    2.5600   -3.5020 o         1 MOL     -0.578292
     67 O12         1.1240    2.6520   -2.7350 o         1 MOL     -0.578292
     68 H28         4.3750    4.1070   -0.5500 hn        1 MOL      0.337920
     69 H29         1.3550    4.3000   -0.7780 h1        1 MOL     -0.109189
     70 H30         3.3790    5.0370   -2.9480 hc        1 MOL      0.040124
     71 H31         1.6250    5.2490   -2.9510 hc        1 MOL      0.040124
     72 N7          1.3470    6.9230   -0.5990 n         1 MOL     -0.432099
     73 C23        -0.0280    6.5400   -0.6910 c3        1 MOL      0.076258
     74 C24        -0.5600    5.7210    0.5650 c         1 MOL      0.464505
     75 O13         0.1310    5.4980    1.5520 o         1 MOL     -0.463108
     76 H32         1.6060    7.8640   -0.3380 hn        1 MOL      0.302661
     77 H33        -0.0670    5.8710   -1.5460 h1        1 MOL      0.037633
     78 H34        -0.6920    7.3820   -0.8970 h1        1 MOL      0.037633
     79 N8         -1.7680    5.1630    0.4430 n         1 MOL     -0.360863
     80 C25        -2.4150    4.4280    1.5180 c3        1 MOL     -0.179248
     81 C26        -1.6800    3.0430    1.7460 c         1 MOL      0.401686
     82 O14        -1.3550    2.3640    0.7900 o         1 MOL     -0.259071
     83 C27        -3.9430    4.3360    1.3010 c3        1 MOL      0.397128
     84 C28        -4.3800    3.1680    0.3720 c3        1 MOL     -0.253008
     85 O15        -4.5430    5.4580    0.8140 oh        1 MOL     -0.600410
     86 H35        -2.2370    5.4420   -0.4030 hn        1 MOL      0.233219
     87 H36        -2.2670    4.9480    2.4620 h1        1 MOL      0.105765
     88 H37        -4.4090    4.0550    2.2460 h1        1 MOL      0.023212
     89 H38        -4.2630    5.4700   -0.1050 ho        1 MOL      0.375833
     90 H39        -3.9740    3.1930   -0.6330 hc        1 MOL      0.068823
     91 H40        -4.0440    2.2240    0.8100 hc        1 MOL      0.068823
     92 H41        -5.4680    3.1210    0.2660 hc        1 MOL      0.068823
     93 N9         -1.4980    2.5840    2.9740 n         1 MOL     -0.495137
     94 C29        -0.8050    1.3320    3.3320 c3        1 MOL      0.128405
     95 C30        -1.0810    0.0890    2.3820 c         1 MOL      0.255953
     96 O16        -0.3490   -0.1030    1.3930 o         1 MOL     -0.468105
     97 C31         0.7610    1.6440    3.4070 c3        1 MOL      0.109426
     98 C32         1.0490    2.8410    4.3310 c3        1 MOL     -0.032392
     99 C33         1.4920    0.3890    3.9900 c3        1 MOL     -0.557036
    100 C34         2.5500    2.9560    4.6630 c3        1 MOL      0.005432
    101 H42        -1.7190    3.1540    3.7780 hn        1 MOL      0.273696
    102 H43        -1.2310    1.0360    4.2910 h1        1 MOL      0.037419
    103 H44         1.2020    1.8490    2.4200 hc        1 MOL      0.122256
    104 H45         0.5170    2.6740    5.2590 hc        1 MOL      0.002686
    105 H46         0.7830    3.7900    3.8610 hc        1 MOL      0.002686
    106 H47         1.0420   -0.4790    3.5090 hc        1 MOL      0.139709
    107 H48         2.5680    0.3840    3.7940 hc        1 MOL      0.139709
    108 H49         1.4140    0.3400    5.0800 hc        1 MOL      0.139709
    109 H50         3.1460    2.9930    3.7430 hc        1 MOL      0.003264
    110 H51         2.7890    3.8540    5.2430 hc        1 MOL      0.003264
    111 H52         2.8750    2.1210    5.2860 hc        1 MOL      0.003264
    112 N10        -2.0730   -0.7500    2.7660 n         1 MOL     -0.303839
    113 C35        -2.5110   -1.9340    2.0790 c3        1 MOL     -0.070086
    114 C36        -4.0220   -1.9030    1.7570 c         1 MOL      0.665430
    115 O17        -4.4250   -2.7590    0.9640 o         1 MOL     -0.615649
    116 C37        -2.0650   -3.2860    2.6800 c3        1 MOL      0.464657
    117 C38        -2.4970   -3.6130    4.1010 c3        1 MOL     -0.308251
    118 O18        -0.6410   -3.3130    2.6850 oh        1 MOL     -0.598084
    119 H53        -2.5450   -0.4940    3.6170 hn        1 MOL      0.246144
    120 H54        -2.1010   -1.9590    1.0810 h1        1 MOL      0.168840
    121 H55        -2.3290   -4.0500    1.9470 h1        1 MOL     -0.030654
    122 H56        -0.3730   -3.3080    1.7620 ho        1 MOL      0.335061
    123 H57        -2.3810   -4.6770    4.2820 hc        1 MOL      0.059643
    124 H58        -1.8460   -2.9930    4.7180 hc        1 MOL      0.059643
    125 H59        -3.5170   -3.2450    4.1420 hc        1 MOL      0.059643
    126 N11        -4.8600   -1.0620    2.3730 n         1 MOL     -0.544389
    127 C39        -6.3620   -1.0360    2.1640 c3        1 MOL      0.042201
    128 C40        -6.7750   -0.8770    0.7160 c         1 MOL      0.535085
    129 O19        -6.4440    0.1800    0.0830 o         1 MOL     -0.432192
    130 C41        -7.1650   -0.0620    2.9890 c3        1 MOL      0.300205
    131 C42        -6.9170    1.4490    2.8200 c3        1 MOL     -0.363334
    132 O20        -8.5130   -0.2700    2.9460 oh        1 MOL     -0.656690
    133 H60        -4.5710   -0.7590    3.2880 hn        1 MOL      0.289161
    134 H61        -6.7370   -2.0020    2.4940 h1        1 MOL      0.067699
    135 H62        -6.9090   -0.3000    4.0180 h1        1 MOL      0.009816
    136 H63        -9.0170    0.5340    3.1390 ho        1 MOL      0.421598
    137 H64        -5.8550    1.6620    2.9480 hc        1 MOL      0.094466
    138 H65        -7.1840    1.8040    1.8320 hc        1 MOL      0.094466
    139 H66        -7.3810    2.0120    3.6330 hc        1 MOL      0.094466
    140 N12        -7.4540   -1.8920    0.1570 n         1 MOL     -0.574199
    141 C43        -7.6080   -2.0810   -1.2660 c3        1 MOL      0.260859
    142 C44        -6.4170   -1.6110   -2.1830 c         1 MOL      0.374362
    143 O21        -6.6380   -0.8710   -3.1100 o         1 MOL     -0.500121
    144 C45        -8.9210   -1.4250   -1.6800 c3        1 MOL     -0.426379
    145 C46       -10.1490   -2.0810   -1.0230 c3        1 MOL      0.216121
    146 C47       -11.4280   -1.5520   -1.6790 c3        1 MOL     -0.055324
    147 C48       -12.7740   -1.7590   -0.8550 c3        1 MOL     -0.095133
    148 N13       -13.0550   -3.2060   -0.4350 n4        1 MOL     -0.148513
    149 H67        -7.7510   -2.5240    0.8870 hn        1 MOL      0.296952
    150 H68        -7.7190   -3.1430   -1.5030 h1        1 MOL      0.027861
    151 H69        -8.9500   -1.4150   -2.7680 hc        1 MOL      0.152264
    152 H70        -9.0390   -0.3880   -1.3640 hc        1 MOL      0.152264
    153 H71       -10.0840   -1.9690    0.0630 hc        1 MOL     -0.032289
    154 H72       -10.0970   -3.1520   -1.2330 hc        1 MOL     -0.032289
    155 H73       -11.5950   -1.9460   -2.6790 hc        1 MOL      0.052547
    156 H74       -11.3650   -0.4690   -1.8060 hc        1 MOL      0.052547
    157 H75       -13.4660   -1.5150   -1.6490 hx        1 MOL      0.112094
    158 H76       -12.9700   -1.1080    0.0040 hx        1 MOL      0.112094
    159 H77       -12.4480   -3.3930    0.3460 hn        1 MOL      0.218676
    160 H78       -14.0030   -3.3700   -0.1390 hn        1 MOL      0.218676
    161 H79       -12.9800   -3.9960   -1.0610 hn        1 MOL      0.218676
    162 N14        -5.2580   -2.0230   -1.8280 n         1 MOL     -0.428044
    163 C49        -4.0310   -1.4140   -2.4190 c3        1 MOL      0.123798
    164 C50        -2.7970   -1.7540   -1.5240 c         1 MOL      0.124978
    165 O22        -2.2760   -0.8050   -0.9190 o         1 MOL     -0.460602
    166 C51        -3.8170   -1.8650   -3.8640 c3        1 MOL      0.005280
    167 C52        -2.4340   -1.6110   -4.4460 c3        1 MOL     -0.291432
    168 C53        -1.7940   -0.2950   -3.9840 c         1 MOL      0.895558
    169 O23        -0.6780   -0.2960   -3.4610 o         1 MOL     -0.760783
    170 O24        -2.4190    0.7440   -4.1630 o         1 MOL     -0.760783
    171 H80        -5.1490   -2.6670   -1.0640 hn        1 MOL      0.319344
    172 H81        -4.0740   -0.3220   -2.5060 h1        1 MOL      0.179064
    173 H82        -4.5160   -1.3210   -4.5060 hc        1 MOL      0.026053
    174 H83        -4.1270   -2.8940   -3.9900 hc        1 MOL      0.026053
    175 H84        -2.5910   -1.5800   -5.5330 hc        1 MOL      0.061536
    176 H85        -1.7670   -2.4210   -4.1320 hc        1 MOL      0.061536
    177 N15        -2.3880   -3.0000   -1.2970 n         1 MOL     -0.033431
    178 C54        -2.7180   -4.2600   -1.9010 c3        1 MOL     -0.330900
    179 H86        -3.7660   -4.4910   -1.7090 h1        1 MOL      0.112513
    180 H87        -2.5510   -4.2020   -2.9770 h1        1 MOL      0.112513
    181 H88        -2.0910   -5.0430   -1.4780 h1        1 MOL      0.112513
    182 H89        -1.6610   -2.9940   -0.5940 hn        1 MOL      0.266569
    183 Ca1         0.1490    0.7990   -1.1280 Ca        1 MOL      1.728513
    184 O25        -1.9010    2.2480   -2.1840 oh        1 MOL     -1.179248
    185 H90        -2.4640    3.0280   -2.2880 ho        1 MOL      0.499649
    186 H91        -1.8730    1.8640   -3.0550 ho        1 MOL      0.499649
@<TRIPOS>BOND
     1    1    2 1   
     2    1    4 1   
     3    1    5 1   
     4    1    6 1   
     5    2    3 2   
     6    2    7 1   
     7    7    8 1   
     8    7   15 1   
     9    8    9 1   
    10    8   11 1   
    11    8   16 1   
    12    9   10 2   
    13    9   19 1   
    14   11   12 1   
    15   11   17 1   
    16   11   18 1   
    17   12   13 1   
    18   12   14 1   
    19   19   20 1   
    20   19   28 1   
    21   20   21 1   
    22   20   23 1   
    23   20   29 1   
    24   21   22 2   
    25   21   41 1   
    26   23   24 1   
    27   23   30 1   
    28   23   31 1   
    29   24   25 1   
    30   24   32 1   
    31   24   33 1   
    32   25   26 1   
    33   25   34 1   
    34   25   35 1   
    35   26   27 1   
    36   26   36 1   
    37   26   37 1   
    38   27   38 1   
    39   27   39 1   
    40   27   40 1   
    41   41   42 1   
    42   41   49 1   
    43   42   43 1   
    44   42   45 1   
    45   42   50 1   
    46   43   44 2   
    47   43   53 1   
    48   45   46 1   
    49   45   51 1   
    50   45   52 1   
    51   46   47 1   
    52   46   48 1   
    53   53   54 1   
    54   53   57 1   
    55   54   55 1   
    56   54   58 1   
    57   54   59 1   
    58   55   56 2   
    59   55   60 1   
    60   60   61 1   
    61   60   68 1   
    62   61   62 1   
    63   61   64 1   
    64   61   69 1   
    65   62   63 2   
    66   62   72 1   
    67   64   65 1   
    68   64   70 1   
    69   64   71 1   
    70   65   66 1   
    71   65   67 1   
    72   72   73 1   
    73   72   76 1   
    74   73   74 1   
    75   73   77 1   
    76   73   78 1   
    77   74   75 2   
    78   74   79 1   
    79   79   80 1   
    80   79   86 1   
    81   80   81 1   
    82   80   83 1   
    83   80   87 1   
    84   81   82 2   
    85   81   93 1   
    86   83   84 1   
    87   83   85 1   
    88   83   88 1   
    89   84   90 1   
    90   84   91 1   
    91   84   92 1   
    92   85   89 1   
    93   93   94 1   
    94   93  101 1   
    95   94   95 1   
    96   94   97 1   
    97   94  102 1   
    98   95   96 2   
    99   95  112 1   
   100   97   98 1   
   101   97   99 1   
   102   97  103 1   
   103   98  100 1   
   104   98  104 1   
   105   98  105 1   
   106   99  106 1   
   107   99  107 1   
   108   99  108 1   
   109  100  109 1   
   110  100  110 1   
   111  100  111 1   
   112  112  113 1   
   113  112  119 1   
   114  113  114 1   
   115  113  116 1   
   116  113  120 1   
   117  114  115 2   
   118  114  126 1   
   119  116  117 1   
   120  116  118 1   
   121  116  121 1   
   122  117  123 1   
   123  117  124 1   
   124  117  125 1   
   125  118  122 1   
   126  126  127 1   
   127  126  133 1   
   128  127  128 1   
   129  127  130 1   
   130  127  134 1   
   131  128  129 2   
   132  128  140 1   
   133  130  131 1   
   134  130  132 1   
   135  130  135 1   
   136  131  137 1   
   137  131  138 1   
   138  131  139 1   
   139  132  136 1   
   140  140  141 1   
   141  140  149 1   
   142  141  142 1   
   143  141  144 1   
   144  141  150 1   
   145  142  143 2   
   146  142  162 1   
   147  144  145 1   
   148  144  151 1   
   149  144  152 1   
   150  145  146 1   
   151  145  153 1   
   152  145  154 1   
   153  146  147 1   
   154  146  155 1   
   155  146  156 1   
   156  147  148 1   
   157  147  157 1   
   158  147  158 1   
   159  148  159 1   
   160  148  160 1   
   161  148  161 1   
   162  162  163 1   
   163  162  171 1   
   164  163  164 1   
   165  163  166 1   
   166  163  172 1   
   167  164  165 2   
   168  164  177 1   
   169  166  167 1   
   170  166  173 1   
   171  166  174 1   
   172  167  168 1   
   173  167  175 1   
   174  167  176 1   
   175  168  169 1   
   176  168  170 1   
   177  177  178 1   
   178  177  182 1   
   179  178  179 1   
   180  178  180 1   
   181  178  181 1   
   182  184  185 1   
   183  184  186 1   
@<TRIPOS>SUBSTRUCTURE
     1 MOL         1 TEMP              0 ****  ****    0 ROOT
