@<TRIPOS>MOLECULE
MOL
  182   178     1     0     0
SMALL
resp


@<TRIPOS>ATOM
      1 C1          0.3110   -3.8200    6.1350 c3        1 MOL     -0.330423
      2 C2          0.3910   -3.6010    4.6060 c         1 MOL      0.729569
      3 O1         -0.6710   -3.2820    3.9230 o         1 MOL     -0.629524
      4 H1          0.0480   -2.8810    6.6230 hc        1 MOL      0.100780
      5 H2         -0.4480   -4.5700    6.3570 hc        1 MOL      0.100780
      6 H3          1.2780   -4.1610    6.5040 hc        1 MOL      0.100780
      7 N1          1.5860   -3.6220    4.0330 n         1 MOL     -0.503443
      8 C3          1.8350   -3.3250    2.6560 c3        1 MOL      0.176671
      9 C4          1.6250   -4.6210    1.7500 c         1 MOL      0.502779
     10 O2          1.7960   -5.7520    2.1550 o         1 MOL     -0.565057
     11 C5          3.2510   -2.6980    2.5770 c3        1 MOL     -0.186990
     12 C6          3.4230   -1.8700    1.2440 c         1 MOL      0.589775
     13 O3          3.9740   -0.7620    1.2800 o         1 MOL     -0.676455
     14 O4          2.9990   -2.2720    0.1830 o         1 MOL     -0.676455
     15 H4          2.3880   -3.8240    4.6080 hn        1 MOL      0.317972
     16 H5          1.1310   -2.5410    2.3810 h1        1 MOL     -0.570074
     17 H6          4.0320   -3.4640    2.5680 hc        1 MOL      0.084541
     18 H7          3.4390   -1.9430    3.3400 hc        1 MOL      0.084541
     19 N2          1.2160   -4.4730    0.4990 n         1 MOL     -0.099952
     20 C7          1.0440   -5.5050   -0.5120 c3        1 MOL     -0.383999
     21 C8          2.1610   -5.4710   -1.5870 c         1 MOL      0.658728
     22 O5          2.3250   -6.4380   -2.2500 o         1 MOL     -0.577500
     23 C9         -0.4030   -5.4170   -1.0570 c3        1 MOL      0.401412
     24 C10        -1.4410   -5.9390   -0.0410 c3        1 MOL     -0.277848
     25 C11        -2.8770   -6.0090   -0.5760 c3        1 MOL     -0.009783
     26 C12        -2.9690   -6.9580   -1.7170 c3        1 MOL     -0.027261
     27 N3         -4.3260   -6.9400   -2.3340 n4        1 MOL     -0.217413
     28 H8          1.2460   -3.5050    0.2050 hn        1 MOL      0.563505
     29 H9          1.2520   -6.4870   -0.0840 h1        1 MOL      0.168738
     30 H10        -0.4780   -5.9930   -1.9830 hc        1 MOL     -0.140200
     31 H11        -0.5240   -4.3630   -1.2910 hc        1 MOL     -0.140200
     32 H12        -1.3510   -5.2280    0.7770 hc        1 MOL      0.089976
     33 H13        -1.0370   -6.9130    0.2360 hc        1 MOL      0.089976
     34 H14        -3.3230   -5.0690   -0.9000 hc        1 MOL      0.029872
     35 H15        -3.5020   -6.3720    0.2410 hc        1 MOL      0.029872
     36 H16        -2.6660   -7.9460   -1.3890 hx        1 MOL      0.128873
     37 H17        -2.3390   -6.6610   -2.5570 hx        1 MOL      0.128873
     38 H18        -4.4320   -7.5060   -3.1600 hn        1 MOL      0.228811
     39 H19        -5.1010   -7.2560   -1.7650 hn        1 MOL      0.228811
     40 H20        -4.5250   -5.9920   -2.6360 hn        1 MOL      0.228811
     41 N4          2.9860   -4.4230   -1.5620 n         1 MOL     -0.239496
     42 C13         4.2210   -4.3860   -2.4040 c3        1 MOL      0.044095
     43 C14         5.5060   -4.1140   -1.6740 c         1 MOL      0.401643
     44 O6          6.5530   -4.6180   -2.0360 o         1 MOL     -0.528669
     45 C15         4.0850   -3.2770   -3.4320 c3        1 MOL     -0.413648
     46 C16         3.7200   -1.9360   -2.8580 c         1 MOL      0.728387
     47 O7          2.5340   -1.4910   -3.0030 o         1 MOL     -0.703435
     48 O8          4.5860   -1.2230   -2.3370 o         1 MOL     -0.703435
     49 H21         2.8510   -3.6360   -0.9460 hn        1 MOL     -0.108261
     50 H22         4.1830   -5.3240   -2.9520 h1        1 MOL      0.112390
     51 H23         3.2700   -3.6020   -4.0720 hc        1 MOL      0.133198
     52 H24         5.0220   -3.2740   -4.0000 hc        1 MOL      0.133198
     53 N5          5.4480   -3.5760   -0.4420 n         1 MOL     -0.148786
     54 C17         6.5410   -3.3630    0.5370 c3        1 MOL     -0.137961
     55 C18         7.2240   -1.9750    0.5380 c         1 MOL      0.552330
     56 O9          8.2450   -1.7870    1.1370 o         1 MOL     -0.546448
     57 H25         4.5500   -3.2050   -0.1520 hn        1 MOL      0.132199
     58 H26         7.3560   -4.0680    0.3900 h1        1 MOL      0.101538
     59 H27         6.0920   -3.6130    1.5030 h1        1 MOL      0.101538
     60 N6          6.6430   -1.0190   -0.2410 n         1 MOL     -0.285732
     61 C19         7.2770    0.2490   -0.5080 c3        1 MOL      0.066317
     62 C20         6.4040    1.4510   -0.2020 c         1 MOL      0.412533
     63 O10         5.2020    1.3640   -0.5320 o         1 MOL     -0.452891
     64 C21         7.8860    0.2450   -1.9240 c3        1 MOL     -0.423754
     65 C22         8.0550    1.6610   -2.4940 c         1 MOL      0.701132
     66 N7          7.4440    1.9720   -3.6060 n         1 MOL     -0.763777
     67 O11         8.9040    2.3840   -2.0150 o         1 MOL     -0.586469
     68 H28         5.8210   -1.1640   -0.8130 hn        1 MOL      0.282238
     69 H29         8.1070    0.3590    0.1900 h1        1 MOL      0.046186
     70 H30         7.1130   -0.3000   -2.4550 hc        1 MOL      0.166884
     71 H31         8.8730   -0.2070   -1.9410 hc        1 MOL      0.166884
     72 H32         6.7990    1.3570   -4.0770 hn        1 MOL      0.351687
     73 H33         7.4880    2.9350   -3.8990 hn        1 MOL      0.351687
     74 N8          6.8860    2.5310    0.4320 n         1 MOL     -0.332717
     75 C23         6.3830    3.8770    0.3900 c3        1 MOL      0.011215
     76 C24         5.0240    4.0970    1.0880 c         1 MOL      0.647535
     77 O12         4.9920    3.8330    2.2810 o         1 MOL     -0.505056
     78 H34         7.8380    2.5690    0.7660 hn        1 MOL      0.299441
     79 H35         6.1560    3.9940   -0.6750 h1        1 MOL      0.035176
     80 H36         7.1420    4.6110    0.6550 h1        1 MOL      0.035176
     81 N9          3.9310    4.5390    0.3600 n         1 MOL     -0.789579
     82 C25         2.6220    4.6040    0.9670 c3        1 MOL      0.557833
     83 C26         2.1370    3.1550    1.2070 c         1 MOL      0.292967
     84 O13         2.5970    2.2120    0.6130 o         1 MOL     -0.537353
     85 C27         1.5920    5.2640    0.0300 c3        1 MOL     -0.265920
     86 C28         1.7750    6.8080   -0.2740 ca        1 MOL      0.120024
     87 C29         1.6140    7.3760   -1.5260 ca        1 MOL     -0.191033
     88 C30         2.1900    7.6730    0.7690 ca        1 MOL     -0.191033
     89 C31         1.8750    8.7610   -1.7890 ca        1 MOL     -0.263987
     90 C32         2.5240    9.0210    0.5720 ca        1 MOL     -0.263987
     91 C33         2.3560    9.6010   -0.7320 ca        1 MOL      0.340787
     92 O14         2.6990   10.8930   -0.9730 oh        1 MOL     -0.467617
     93 H37         3.9550    4.7160   -0.6300 hn        1 MOL      0.373196
     94 H38         2.6630    5.2070    1.8690 h1        1 MOL      0.006923
     95 H39         0.6050    5.2910    0.4840 hc        1 MOL      0.051793
     96 H40         1.7510    4.8010   -0.9380 hc        1 MOL      0.051793
     97 H41         1.2660    6.6940   -2.2990 ha        1 MOL      0.130457
     98 H42         2.1810    7.3100    1.7930 ha        1 MOL      0.130457
     99 H43         1.8190    9.1550   -2.7870 ha        1 MOL      0.164856
    100 H44         2.8610    9.6080    1.4070 ha        1 MOL      0.164856
    101 H45         2.4910   11.2510   -1.8360 ho        1 MOL      0.366674
    102 N10         1.4000    2.9860    2.2920 n         1 MOL     -0.493695
    103 C34         0.7400    1.8330    2.7750 c3        1 MOL      0.316036
    104 C35         0.0800    0.9260    1.6950 c         1 MOL      0.049825
    105 O15         0.7960    0.2920    0.9740 o         1 MOL      0.033370
    106 C36         1.5290    1.0240    3.7590 c3        1 MOL      0.264766
    107 C37         0.7310   -0.2410    4.2460 c3        1 MOL     -0.136639
    108 C38         2.1580    1.8300    4.9220 c3        1 MOL     -0.211854
    109 C39        -0.4720    0.0130    5.1230 c3        1 MOL     -0.099310
    110 H46         1.2060    3.8500    2.7660 hn        1 MOL      0.246069
    111 H47        -0.1150    2.3020    3.2640 h1        1 MOL     -0.003092
    112 H48         2.3720    0.5750    3.2170 hc        1 MOL      0.013855
    113 H49         1.4680   -0.8710    4.7540 hc        1 MOL      0.092405
    114 H50         0.3720   -0.8280    3.4000 hc        1 MOL      0.092405
    115 H51         2.7160    1.1530    5.5660 hc        1 MOL      0.037102
    116 H52         2.8680    2.5290    4.4860 hc        1 MOL      0.037102
    117 H53         1.3330    2.2170    5.5230 hc        1 MOL      0.037102
    118 H54        -0.2180    0.5220    6.0480 hc        1 MOL      0.026591
    119 H55        -1.2430    0.6210    4.6370 hc        1 MOL      0.026591
    120 H56        -0.8650   -0.9370    5.4710 hc        1 MOL      0.026591
    121 N11        -1.2470    0.6780    1.7070 n         1 MOL     -0.290241
    122 C40        -1.9250   -0.0500    0.6350 c3        1 MOL     -0.035682
    123 C41        -3.3720    0.6100    0.2900 c         1 MOL      0.530262
    124 O16        -4.1290    1.0220    1.2000 o         1 MOL     -0.490505
    125 C42        -2.1470   -1.5000    0.9470 c3        1 MOL     -0.038909
    126 O17        -1.0070   -2.2980    1.1360 oh        1 MOL     -0.465994
    127 H57        -1.8330    1.2710    2.2830 hn        1 MOL      0.248970
    128 H58        -1.2630    0.0620   -0.2210 h1        1 MOL      0.065297
    129 H59        -2.5990   -1.8940    0.0360 h1        1 MOL      0.062095
    130 H60        -2.7940   -1.5940    1.8110 h1        1 MOL      0.062095
    131 H61        -1.0480   -2.6820    2.0110 ho        1 MOL      0.479177
    132 N12        -3.7260    0.7770   -0.9940 n         1 MOL     -0.517269
    133 C43        -5.0560    1.1420   -1.4620 c3        1 MOL      0.293075
    134 C44        -5.3780    0.2890   -2.7180 c         1 MOL      0.616936
    135 O18        -4.5080    0.2930   -3.5590 o         1 MOL     -0.557521
    136 C45        -5.2710    2.6510   -1.7650 c3        1 MOL     -0.419069
    137 H62        -3.0540    0.4880   -1.6880 hn        1 MOL      0.227776
    138 H63        -5.7270    0.7530   -0.6920 h1        1 MOL      0.042338
    139 H64        -6.2380    2.8170   -2.2460 hc        1 MOL      0.123908
    140 H65        -5.1350    3.0860   -0.7800 hc        1 MOL      0.123908
    141 H66        -4.4730    2.9510   -2.4520 hc        1 MOL      0.123908
    142 N13        -6.5450   -0.3650   -2.8960 n         1 MOL     -0.744458
    143 C46        -7.6950   -0.2730   -2.0890 c3        1 MOL      0.389374
    144 C47        -8.7150    0.8380   -2.5280 c         1 MOL      0.652296
    145 O19        -8.7270    1.1050   -3.7210 o         1 MOL     -0.564679
    146 C48        -8.3390   -1.6340   -2.1740 c3        1 MOL     -0.258134
    147 H67        -6.6330   -0.9740   -3.6960 hn        1 MOL      0.369103
    148 H68        -7.4400   -0.1720   -1.0310 h1        1 MOL     -0.023885
    149 H69        -9.0510   -1.6300   -1.3530 hc        1 MOL      0.069017
    150 H70        -8.8380   -1.8660   -3.1160 hc        1 MOL      0.069017
    151 H71        -7.7250   -2.4820   -1.8510 hc        1 MOL      0.069017
    152 N14        -9.6440    1.3910   -1.7370 n         1 MOL     -0.715893
    153 C49        -9.9690    1.0180   -0.3620 c3        1 MOL     -0.046001
    154 C50        -9.2450    1.8720    0.6940 c         1 MOL      0.491827
    155 O20        -8.4250    1.3830    1.4370 o         1 MOL     -0.515982
    156 C51       -11.5110    0.9470   -0.3940 c3        1 MOL      0.016124
    157 C52       -11.9590    0.4780    0.9820 c3        1 MOL     -0.330433
    158 C53       -13.4420   -0.0170    1.0240 c         1 MOL      0.742877
    159 O21       -13.8180   -1.1480    0.5890 o         1 MOL     -0.656689
    160 O22       -14.3020    0.7060    1.5520 o         1 MOL     -0.656689
    161 H72       -10.3290    1.9490   -2.2160 hn        1 MOL      0.370580
    162 H73        -9.6480    0.0020   -0.1410 h1        1 MOL      0.118433
    163 H74       -11.8210    0.2970   -1.2120 hc        1 MOL      0.048742
    164 H75       -12.0630    1.8720   -0.5650 hc        1 MOL      0.048742
    165 H76       -11.7700    1.3000    1.6660 hc        1 MOL      0.072969
    166 H77       -11.3130   -0.3440    1.3120 hc        1 MOL      0.072969
    167 N15        -9.3320    3.2020    0.6270 n         1 MOL     -0.313732
    168 C54        -8.4560    4.1300    1.4230 c3        1 MOL     -0.161189
    169 H78        -8.2100    3.6660    2.3790 h1        1 MOL      0.101495
    170 H79        -7.5380    4.3280    0.8700 h1        1 MOL      0.101495
    171 H80        -8.9840    5.0670    1.6000 h1        1 MOL      0.101495
    172 H81       -10.0480    3.5320    0.0060 hn        1 MOL      0.262227
    173 Ca1         2.5760    0.1310   -0.8940 Ca        1 MOL      1.720750
    174 O23         0.4320   -1.7550   -1.1050 oh        1 MOL     -0.898270
    175 H82        -0.1040   -1.8120   -0.3160 ho        1 MOL      0.431034
    176 H83        -0.1860   -1.8550   -1.8230 ho        1 MOL      0.431034
    177 O24         2.9230    1.7620   -3.0030 oh        1 MOL     -0.898270
    178 H84         2.2220    1.9210   -3.6420 ho        1 MOL      0.431034
    179 H85         3.5570    2.4650   -3.1670 ho        1 MOL      0.431034
    180 O25         0.1420    1.2870   -1.8030 oh        1 MOL     -0.898270
    181 H86        -0.6140    1.8290   -1.5840 ho        1 MOL      0.431034
    182 H87         0.0870    1.1850   -2.7580 ho        1 MOL      0.431034
@<TRIPOS>BOND
     1    1    2 1   
     2    1    4 1   
     3    1    5 1   
     4    1    6 1   
     5    2    3 2   
     6    2    7 1   
     7    7    8 1   
     8    7   15 1   
     9    8    9 1   
    10    8   11 1   
    11    8   16 1   
    12    9   10 2   
    13    9   19 1   
    14   11   12 1   
    15   11   17 1   
    16   11   18 1   
    17   12   13 1   
    18   12   14 1   
    19   19   20 1   
    20   19   28 1   
    21   20   21 1   
    22   20   23 1   
    23   20   29 1   
    24   21   22 2   
    25   21   41 1   
    26   23   24 1   
    27   23   30 1   
    28   23   31 1   
    29   24   25 1   
    30   24   32 1   
    31   24   33 1   
    32   25   26 1   
    33   25   34 1   
    34   25   35 1   
    35   26   27 1   
    36   26   36 1   
    37   26   37 1   
    38   27   38 1   
    39   27   39 1   
    40   27   40 1   
    41   41   42 1   
    42   41   49 1   
    43   42   43 1   
    44   42   45 1   
    45   42   50 1   
    46   43   44 2   
    47   43   53 1   
    48   45   46 1   
    49   45   51 1   
    50   45   52 1   
    51   46   47 1   
    52   46   48 1   
    53   53   54 1   
    54   53   57 1   
    55   54   55 1   
    56   54   58 1   
    57   54   59 1   
    58   55   56 2   
    59   55   60 1   
    60   60   61 1   
    61   60   68 1   
    62   61   62 1   
    63   61   64 1   
    64   61   69 1   
    65   62   63 2   
    66   62   74 1   
    67   64   65 1   
    68   64   70 1   
    69   64   71 1   
    70   65   66 1   
    71   65   67 2   
    72   66   72 1   
    73   66   73 1   
    74   74   75 1   
    75   74   78 1   
    76   75   76 1   
    77   75   79 1   
    78   75   80 1   
    79   76   77 2   
    80   76   81 1   
    81   81   82 1   
    82   81   93 1   
    83   82   83 1   
    84   82   85 1   
    85   82   94 1   
    86   83   84 2   
    87   83  102 1   
    88   85   86 1   
    89   85   95 1   
    90   85   96 1   
    91   86   87 ar  
    92   86   88 ar  
    93   87   89 ar  
    94   87   97 1   
    95   88   90 ar  
    96   88   98 1   
    97   89   91 ar  
    98   89   99 1   
    99   90   91 ar  
   100   90  100 1   
   101   91   92 1   
   102   92  101 1   
   103  102  103 1   
   104  102  110 1   
   105  103  104 1   
   106  103  106 1   
   107  103  111 1   
   108  104  105 2   
   109  104  121 1   
   110  106  107 1   
   111  106  108 1   
   112  106  112 1   
   113  107  109 1   
   114  107  113 1   
   115  107  114 1   
   116  108  115 1   
   117  108  116 1   
   118  108  117 1   
   119  109  118 1   
   120  109  119 1   
   121  109  120 1   
   122  121  122 1   
   123  121  127 1   
   124  122  123 1   
   125  122  125 1   
   126  122  128 1   
   127  123  124 2   
   128  123  132 1   
   129  125  126 1   
   130  125  129 1   
   131  125  130 1   
   132  126  131 1   
   133  132  133 1   
   134  132  137 1   
   135  133  134 1   
   136  133  136 1   
   137  133  138 1   
   138  134  135 2   
   139  134  142 1   
   140  136  139 1   
   141  136  140 1   
   142  136  141 1   
   143  142  143 1   
   144  142  147 1   
   145  143  144 1   
   146  143  146 1   
   147  143  148 1   
   148  144  145 2   
   149  144  152 1   
   150  146  149 1   
   151  146  150 1   
   152  146  151 1   
   153  152  153 1   
   154  152  161 1   
   155  153  154 1   
   156  153  156 1   
   157  153  162 1   
   158  154  155 2   
   159  154  167 1   
   160  156  157 1   
   161  156  163 1   
   162  156  164 1   
   163  157  158 1   
   164  157  165 1   
   165  157  166 1   
   166  158  159 1   
   167  158  160 1   
   168  167  168 1   
   169  167  172 1   
   170  168  169 1   
   171  168  170 1   
   172  168  171 1   
   173  174  175 1   
   174  174  176 1   
   175  177  178 1   
   176  177  179 1   
   177  180  181 1   
   178  180  182 1   
@<TRIPOS>SUBSTRUCTURE
     1 MOL         1 TEMP              0 ****  ****    0 ROOT
