@<TRIPOS>MOLECULE
MOL
  189   185     1     0     0
SMALL
resp


@<TRIPOS>ATOM
      1 C1          4.3020    4.7810   -2.7820 c3        1 MOL     -0.369302
      2 C2          5.1430    3.9190   -1.7970 c         1 MOL      0.670740
      3 O1          4.6290    3.4820   -0.8030 o         1 MOL     -0.522821
      4 H1          3.8460    4.1350   -3.5320 hc        1 MOL      0.099101
      5 H2          3.5210    5.3040   -2.2300 hc        1 MOL      0.099101
      6 H3          4.9480    5.5080   -3.2730 hc        1 MOL      0.099101
      7 N1          6.4040    3.5540   -2.1290 n         1 MOL     -0.528695
      8 C3          7.1790    2.5000   -1.6370 c3        1 MOL      0.292864
      9 C4          6.3220    1.2360   -1.4830 c         1 MOL      0.488732
     10 O2          5.9220    0.8600   -0.3610 o         1 MOL     -0.667855
     11 C5          7.9370    3.0730   -0.3450 c3        1 MOL     -0.384173
     12 C6          7.1810    3.8080    0.7280 c         1 MOL      0.788524
     13 O3          6.3620    3.2590    1.5230 o         1 MOL     -0.720753
     14 O4          7.3370    5.0600    0.7950 o         1 MOL     -0.720753
     15 H4          6.7690    3.9460   -2.9850 hn        1 MOL      0.267612
     16 H5          7.9110    2.1910   -2.3750 h1        1 MOL      0.004579
     17 H6          8.7380    3.7130   -0.7240 hc        1 MOL      0.074107
     18 H7          8.4100    2.2640    0.2250 hc        1 MOL      0.074107
     19 N2          5.8770    0.6500   -2.6760 n         1 MOL     -0.506042
     20 C7          5.1300   -0.5730   -3.0260 c3        1 MOL      0.153345
     21 C8          5.8140   -1.7820   -2.3960 c         1 MOL      0.176279
     22 O5          6.1220   -2.7220   -3.1570 o         1 MOL     -0.519229
     23 C9          3.6080   -0.4600   -2.6900 c3        1 MOL      0.212614
     24 C10         2.8800   -1.8070   -2.7320 c3        1 MOL     -0.194149
     25 C11         2.9990    0.5470   -3.6490 c3        1 MOL     -0.241911
     26 C12         3.0010   -2.5540   -4.0580 c3        1 MOL     -0.047048
     27 H8          6.1130    1.2200   -3.4730 hn        1 MOL      0.243768
     28 H9          5.2030   -0.6590   -4.1120 h1        1 MOL      0.064866
     29 H10         3.4320   -0.0040   -1.7140 hc        1 MOL     -0.125787
     30 H11         1.8170   -1.6800   -2.4980 hc        1 MOL      0.105878
     31 H12         3.1730   -2.5190   -1.9700 hc        1 MOL      0.105878
     32 H13         3.1030    0.2870   -4.7000 hc        1 MOL      0.050349
     33 H14         1.9820    0.7010   -3.3010 hc        1 MOL      0.050349
     34 H15         3.4070    1.5320   -3.4690 hc        1 MOL      0.050349
     35 H16         2.5330   -2.0320   -4.9000 hc        1 MOL      0.003994
     36 H17         4.0580   -2.6570   -4.3300 hc        1 MOL      0.003994
     37 H18         2.5350   -3.5360   -4.0940 hc        1 MOL      0.003994
     38 N3          5.9910   -1.8600   -1.1210 n         1 MOL      0.167697
     39 C13         6.7760   -2.8990   -0.4840 c3        1 MOL     -0.192774
     40 C14         6.1050   -4.2620   -0.4410 c         1 MOL      0.775999
     41 O6          6.6250   -5.1690   -1.0560 o         1 MOL     -0.602385
     42 C15         7.2130   -2.3650    0.9170 c3        1 MOL     -0.258226
     43 C16         7.6580   -3.5230    1.7660 c         1 MOL      0.754880
     44 O7          6.8510   -4.0130    2.5520 o         1 MOL     -0.734708
     45 O8          8.8640   -3.8970    1.6620 o         1 MOL     -0.734708
     46 H19         5.8110   -1.0540   -0.5510 hn        1 MOL      0.189675
     47 H20         7.7530   -2.9670   -0.9490 h1        1 MOL      0.083429
     48 H21         6.4240   -1.7670    1.3650 hc        1 MOL      0.053970
     49 H22         8.0200   -1.6270    0.7990 hc        1 MOL      0.053970
     50 N4          4.8710   -4.4560    0.0470 n         1 MOL     -0.735666
     51 C17         4.0440   -3.5210    0.7940 c3        1 MOL      0.240558
     52 C18         2.6750   -4.0100    1.2420 c         1 MOL      0.469113
     53 O9          1.9810   -4.8170    0.5690 o         1 MOL     -0.592717
     54 H23         4.6320   -5.4300    0.1930 hn        1 MOL      0.339827
     55 H24         3.9290   -2.5610    0.2950 h1        1 MOL      0.079848
     56 H25         4.5970   -3.3630    1.7090 h1        1 MOL      0.079848
     57 N5          1.9910   -3.5420    2.2540 n         1 MOL     -0.406583
     58 C19         2.1560   -2.2200    2.9260 c3        1 MOL      0.036028
     59 C20         2.2580   -1.0500    1.8840 c         1 MOL      0.134745
     60 O10         3.3990   -0.6770    1.4960 o         1 MOL     -0.465977
     61 C21         3.2480   -2.0750    4.0270 c3        1 MOL     -0.481012
     62 C22         3.2100   -0.6770    4.6860 c         1 MOL      0.862042
     63 O11         4.1460   -0.3700    5.4000 o         1 MOL     -0.717507
     64 O12         2.2640    0.1170    4.5610 o         1 MOL     -0.717507
     65 H26         1.2340   -4.1910    2.4500 hn        1 MOL      0.281528
     66 H27         1.2370   -2.0650    3.4960 h1        1 MOL      0.108759
     67 H28         4.2720   -2.2610    3.6940 hc        1 MOL      0.138921
     68 H29         2.9730   -2.7900    4.7900 hc        1 MOL      0.138921
     69 N6          1.0940   -0.5430    1.3450 n         1 MOL      0.009552
     70 C23        -0.2380   -1.1490    1.4210 c3        1 MOL     -0.247782
     71 C24        -0.4100   -2.1730    0.3080 c         1 MOL      0.387314
     72 O13         0.3370   -2.2960   -0.6580 o         1 MOL     -0.408240
     73 H30         1.2150    0.2220    0.6990 hn        1 MOL      0.118453
     74 H31        -0.9880   -0.3580    1.4550 h1        1 MOL      0.114877
     75 H32        -0.3170   -1.7120    2.3490 h1        1 MOL      0.114877
     76 N7         -1.4730   -2.9260    0.4850 n         1 MOL     -0.387916
     77 C25        -1.7940   -4.1850   -0.2460 c3        1 MOL     -0.034488
     78 C26        -2.4930   -3.9130   -1.6310 c         1 MOL      0.424012
     79 O14        -3.2510   -4.7390   -2.0320 o         1 MOL     -0.470407
     80 C27        -2.6360   -5.1220    0.6530 c3        1 MOL      0.222750
     81 C28        -2.0080   -5.4470    2.0340 c3        1 MOL     -0.217398
     82 C29        -2.9880   -6.2320    2.7930 c         1 MOL      0.676200
     83 N8         -2.6490   -6.4880    4.0400 n         1 MOL     -0.805713
     84 O15        -4.0500   -6.6640    2.3160 o         1 MOL     -0.547955
     85 H33        -2.1410   -2.7270    1.2120 hn        1 MOL      0.283825
     86 H34        -0.8670   -4.7090   -0.5090 h1        1 MOL      0.126055
     87 H35        -2.9100   -6.0240    0.1010 hc        1 MOL     -0.024603
     88 H36        -3.5850   -4.6430    0.8870 hc        1 MOL     -0.024603
     89 H37        -1.7950   -4.4970    2.5260 hc        1 MOL      0.047805
     90 H38        -1.0630   -5.9780    1.8910 hc        1 MOL      0.047805
     91 H39        -1.7940   -6.0600    4.3910 hn        1 MOL      0.358642
     92 H40        -3.1300   -7.2050    4.5520 hn        1 MOL      0.358642
     93 N9         -2.2170   -2.7640   -2.3400 n         1 MOL     -0.214621
     94 C30        -2.9050   -2.3320   -3.5960 c3        1 MOL     -0.214244
     95 C31        -4.3310   -1.7640   -3.5180 c         1 MOL      0.517540
     96 O16        -4.9890   -1.6430   -4.5730 o         1 MOL     -0.549279
     97 C32        -1.9770   -1.4270   -4.5050 c3        1 MOL      0.246563
     98 C33        -0.5540   -1.8810   -4.5810 c3        1 MOL     -0.056680
     99 C34        -2.0630    0.0580   -4.0220 c3        1 MOL     -0.056680
    100 H41        -1.4410   -2.1800   -2.0530 hn        1 MOL      0.161740
    101 H42        -3.0630   -3.2750   -4.1260 h1        1 MOL      0.116709
    102 H43        -2.4250   -1.4160   -5.5000 hc        1 MOL     -0.013579
    103 H44        -0.5450   -2.7530   -5.2200 hc        1 MOL     -0.003221
    104 H45         0.0040   -1.1110   -5.1010 hc        1 MOL     -0.003221
    105 H46        -0.0510   -2.0410   -3.6290 hc        1 MOL     -0.003221
    106 H47        -1.8590    0.1520   -2.9600 hc        1 MOL     -0.003221
    107 H48        -1.4120    0.7520   -4.5590 hc        1 MOL     -0.003221
    108 H49        -3.0900    0.4190   -4.1450 hc        1 MOL     -0.003221
    109 N10        -4.8790   -1.4490   -2.3430 n         1 MOL     -0.355994
    110 C35        -6.2580   -1.1330   -2.1580 c3        1 MOL     -0.033295
    111 C36        -6.5120    0.3250   -1.6350 c         1 MOL      0.716310
    112 O17        -7.4550    0.9570   -2.0730 o         1 MOL     -0.590376
    113 C37        -6.8410   -2.0700   -1.1090 c3        1 MOL     -0.216145
    114 C38        -6.6600   -3.4710   -1.4130 c         1 MOL      0.698058
    115 N11        -6.9190   -3.8900   -2.6060 n         1 MOL     -0.828985
    116 O18        -6.4670   -4.3330   -0.6020 o         1 MOL     -0.556768
    117 H50        -4.2140   -1.5670   -1.5860 hn        1 MOL      0.210098
    118 H51        -6.8350   -1.1610   -3.0850 h1        1 MOL      0.070922
    119 H52        -7.8910   -1.8210   -0.9930 hc        1 MOL      0.104543
    120 H53        -6.3880   -1.9280   -0.1210 hc        1 MOL      0.104543
    121 H54        -7.1640   -3.2430   -3.3380 hn        1 MOL      0.375149
    122 H55        -6.8140   -4.8780   -2.8130 hn        1 MOL      0.375149
    123 N12        -5.7330    0.8870   -0.6870 n         1 MOL     -0.612337
    124 C39        -6.0270    2.1150    0.0250 c3        1 MOL      0.151569
    125 C40        -4.7350    2.8910    0.4000 c         1 MOL      0.461260
    126 O19        -3.7050    2.2390    0.5660 o         1 MOL     -0.475464
    127 C41        -6.7090    1.7590    1.3860 c3        1 MOL     -0.170733
    128 C42        -7.6990    0.6570    1.4090 ca        1 MOL     -0.019255
    129 C43        -8.9050    0.8460    0.7990 ca        1 MOL     -0.038906
    130 C44        -7.4160   -0.5670    1.9970 ca        1 MOL     -0.038906
    131 C45        -9.8710   -0.1900    0.8430 ca        1 MOL     -0.384497
    132 C46        -8.3500   -1.6320    1.9960 ca        1 MOL     -0.384497
    133 C47        -9.6020   -1.4430    1.4740 ca        1 MOL      0.426230
    134 O20       -10.4680   -2.4730    1.4550 oh        1 MOL     -0.481007
    135 H56        -4.9920    0.3100   -0.3380 hn        1 MOL      0.292294
    136 H57        -6.7640    2.7550   -0.4560 h1        1 MOL      0.051428
    137 H58        -7.2130    2.5900    1.8830 hc        1 MOL      0.110474
    138 H59        -5.8860    1.4140    2.0170 hc        1 MOL      0.110474
    139 H60        -9.2070    1.8320    0.4990 ha        1 MOL      0.115704
    140 H61        -6.4920   -0.6380    2.5510 ha        1 MOL      0.115704
    141 H62       -10.8250   -0.0610    0.3470 ha        1 MOL      0.158520
    142 H63        -8.0050   -2.5900    2.3700 ha        1 MOL      0.158520
    143 H64       -11.3720   -2.2780    1.1820 ho        1 MOL      0.345528
    144 N13        -4.7780    4.2040    0.5670 n         1 MOL     -0.557157
    145 C48        -3.6340    5.0910    1.0310 c3        1 MOL      0.063837
    146 C49        -2.3760    5.1500    0.1750 c         1 MOL      0.319379
    147 O21        -1.6260    6.1780    0.3670 o         1 MOL     -0.508675
    148 C50        -3.5240    4.8720    2.5660 c3        1 MOL      0.036201
    149 C51        -4.7030    5.2980    3.4680 c3        1 MOL     -0.332106
    150 C52        -4.5040    4.7870    4.9130 c         1 MOL      0.768217
    151 O22        -3.9810    5.4710    5.8490 o         1 MOL     -0.738976
    152 O23        -4.9740    3.6960    5.2360 o         1 MOL     -0.738976
    153 H65        -5.6150    4.7230    0.3370 hn        1 MOL      0.316626
    154 H66        -4.0030    6.0950    0.8070 h1        1 MOL      0.083527
    155 H67        -2.5530    5.2800    2.8580 hc        1 MOL      0.049855
    156 H68        -3.3320    3.8030    2.7030 hc        1 MOL      0.049855
    157 H69        -5.6020    4.7790    3.1210 hc        1 MOL      0.035181
    158 H70        -4.7120    6.3880    3.4330 hc        1 MOL      0.035181
    159 N14        -2.0560    4.1450   -0.6290 n         1 MOL     -0.230437
    160 C53        -0.9410    4.1620   -1.6450 c3        1 MOL      0.002892
    161 C54        -1.3010    5.0840   -2.7660 c         1 MOL      0.495766
    162 O24        -0.4390    5.7710   -3.2230 o         1 MOL     -0.538293
    163 C55        -0.4180    2.8170   -2.0730 c3        1 MOL     -0.016752
    164 C56        -0.2050    1.6970   -1.0420 c3        1 MOL      0.446843
    165 C57         0.9700    2.1230   -0.1070 c         1 MOL      0.315048
    166 O25         2.1060    1.6230   -0.1910 o         1 MOL     -0.549331
    167 O26         0.7330    2.9170    0.8490 o         1 MOL     -0.549331
    168 H71        -2.7200    3.3800   -0.6120 hn        1 MOL      0.251573
    169 H72        -0.0850    4.6810   -1.2000 h1        1 MOL      0.110050
    170 H73         0.4880    2.9550   -2.6520 hc        1 MOL     -0.025807
    171 H74        -1.1800    2.3900   -2.7280 hc        1 MOL     -0.025807
    172 H75        -0.0480    0.7310   -1.5260 hc        1 MOL     -0.110545
    173 H76        -1.1320    1.6470   -0.4680 hc        1 MOL     -0.110545
    174 N15        -2.5680    5.0980   -3.0690 n         1 MOL     -0.273970
    175 C58        -3.2650    6.0950   -3.8960 c3        1 MOL     -0.238902
    176 H77        -3.8690    5.5860   -4.6460 h1        1 MOL      0.103756
    177 H78        -3.9110    6.7050   -3.2640 h1        1 MOL      0.103756
    178 H79        -2.5330    6.7330   -4.3910 h1        1 MOL      0.103756
    179 H80        -3.2120    4.5060   -2.5550 hn        1 MOL      0.217967
    180 Ca1         4.1880    1.8590    1.2490 Ca        1 MOL      1.799477
    181 O27         3.3270    4.5680    1.7110 oh        1 MOL     -0.911381
    182 H81         2.4020    4.7670    1.5930 ho        1 MOL      0.430026
    183 H82         3.7830    5.4010    1.5770 ho        1 MOL      0.430026
    184 O28         2.3370    2.2020    3.1140 oh        1 MOL     -0.911381
    185 H83         1.5360    2.7050    3.2820 ho        1 MOL      0.430026
    186 H84         2.2420    1.4220    3.6560 ho        1 MOL      0.430026
    187 O29         5.5150    1.1260    3.4840 oh        1 MOL     -0.911381
    188 H85         5.2290    0.4270    4.0730 ho        1 MOL      0.430026
    189 H86         5.9830    1.7360    4.0610 ho        1 MOL      0.430026
@<TRIPOS>BOND
     1    1    2 1   
     2    1    4 1   
     3    1    5 1   
     4    1    6 1   
     5    2    3 2   
     6    2    7 1   
     7    7    8 1   
     8    7   15 1   
     9    8    9 1   
    10    8   11 1   
    11    8   16 1   
    12    9   10 2   
    13    9   19 1   
    14   11   12 1   
    15   11   17 1   
    16   11   18 1   
    17   12   13 1   
    18   12   14 1   
    19   19   20 1   
    20   19   27 1   
    21   20   21 1   
    22   20   23 1   
    23   20   28 1   
    24   21   22 2   
    25   21   38 1   
    26   23   24 1   
    27   23   25 1   
    28   23   29 1   
    29   24   26 1   
    30   24   30 1   
    31   24   31 1   
    32   25   32 1   
    33   25   33 1   
    34   25   34 1   
    35   26   35 1   
    36   26   36 1   
    37   26   37 1   
    38   38   39 1   
    39   38   46 1   
    40   39   40 1   
    41   39   42 1   
    42   39   47 1   
    43   40   41 2   
    44   40   50 1   
    45   42   43 1   
    46   42   48 1   
    47   42   49 1   
    48   43   44 1   
    49   43   45 1   
    50   50   51 1   
    51   50   54 1   
    52   51   52 1   
    53   51   55 1   
    54   51   56 1   
    55   52   53 2   
    56   52   57 1   
    57   57   58 1   
    58   57   65 1   
    59   58   59 1   
    60   58   61 1   
    61   58   66 1   
    62   59   60 2   
    63   59   69 1   
    64   61   62 1   
    65   61   67 1   
    66   61   68 1   
    67   62   63 1   
    68   62   64 1   
    69   69   70 1   
    70   69   73 1   
    71   70   71 1   
    72   70   74 1   
    73   70   75 1   
    74   71   72 2   
    75   71   76 1   
    76   76   77 1   
    77   76   85 1   
    78   77   78 1   
    79   77   80 1   
    80   77   86 1   
    81   78   79 2   
    82   78   93 1   
    83   80   81 1   
    84   80   87 1   
    85   80   88 1   
    86   81   82 1   
    87   81   89 1   
    88   81   90 1   
    89   82   83 1   
    90   82   84 2   
    91   83   91 1   
    92   83   92 1   
    93   93   94 1   
    94   93  100 1   
    95   94   95 1   
    96   94   97 1   
    97   94  101 1   
    98   95   96 2   
    99   95  109 1   
   100   97   98 1   
   101   97   99 1   
   102   97  102 1   
   103   98  103 1   
   104   98  104 1   
   105   98  105 1   
   106   99  106 1   
   107   99  107 1   
   108   99  108 1   
   109  109  110 1   
   110  109  117 1   
   111  110  111 1   
   112  110  113 1   
   113  110  118 1   
   114  111  112 2   
   115  111  123 1   
   116  113  114 1   
   117  113  119 1   
   118  113  120 1   
   119  114  115 1   
   120  114  116 2   
   121  115  121 1   
   122  115  122 1   
   123  123  124 1   
   124  123  135 1   
   125  124  125 1   
   126  124  127 1   
   127  124  136 1   
   128  125  126 2   
   129  125  144 1   
   130  127  128 1   
   131  127  137 1   
   132  127  138 1   
   133  128  129 ar  
   134  128  130 ar  
   135  129  131 ar  
   136  129  139 1   
   137  130  132 ar  
   138  130  140 1   
   139  131  133 ar  
   140  131  141 1   
   141  132  133 ar  
   142  132  142 1   
   143  133  134 1   
   144  134  143 1   
   145  144  145 1   
   146  144  153 1   
   147  145  146 1   
   148  145  148 1   
   149  145  154 1   
   150  146  147 2   
   151  146  159 1   
   152  148  149 1   
   153  148  155 1   
   154  148  156 1   
   155  149  150 1   
   156  149  157 1   
   157  149  158 1   
   158  150  151 1   
   159  150  152 1   
   160  159  160 1   
   161  159  168 1   
   162  160  161 1   
   163  160  163 1   
   164  160  169 1   
   165  161  162 2   
   166  161  174 1   
   167  163  164 1   
   168  163  170 1   
   169  163  171 1   
   170  164  165 1   
   171  164  172 1   
   172  164  173 1   
   173  165  166 1   
   174  165  167 1   
   175  174  175 1   
   176  174  179 1   
   177  175  176 1   
   178  175  177 1   
   179  175  178 1   
   180  181  182 1   
   181  181  183 1   
   182  184  185 1   
   183  184  186 1   
   184  187  188 1   
   185  187  189 1   
@<TRIPOS>SUBSTRUCTURE
     1 MOL         1 TEMP              0 ****  ****    0 ROOT
