@<TRIPOS>MOLECULE
MOL
  182   178     1     0     0
SMALL
resp


@<TRIPOS>ATOM
      1 C1          0.3640   -3.3050    6.5370 c3        1 MOL     -0.452807
      2 C2          0.5120   -3.3030    4.9810 c         1 MOL      0.785482
      3 O1         -0.4540   -3.2940    4.2110 o         1 MOL     -0.613113
      4 H1          0.2900   -2.2770    6.8960 hc        1 MOL      0.131208
      5 H2         -0.5360   -3.8520    6.8170 hc        1 MOL      0.131208
      6 H3          1.2350   -3.7840    6.9850 hc        1 MOL      0.131208
      7 N1          1.7490   -3.2590    4.4040 n         1 MOL     -0.656638
      8 C3          2.0400   -3.0180    2.9840 c3        1 MOL      0.019562
      9 C4          1.9560   -4.2460    2.1080 c         1 MOL      0.721826
     10 O2          2.4260   -5.3320    2.4660 o         1 MOL     -0.593787
     11 C5          3.2950   -2.1580    2.8440 c3        1 MOL      0.023543
     12 C6          3.3650   -1.3410    1.5120 c         1 MOL      0.465743
     13 O3          3.9740   -0.2480    1.5120 o         1 MOL     -0.667739
     14 O4          2.9290   -1.8700    0.5040 o         1 MOL     -0.667739
     15 H4          2.5120   -3.3150    5.0640 hn        1 MOL      0.325974
     16 H5          1.3160   -2.2820    2.6320 h1        1 MOL      0.038164
     17 H6          4.1210   -2.8700    2.7650 hc        1 MOL      0.027133
     18 H7          3.5540   -1.4970    3.6620 hc        1 MOL      0.027133
     19 N2          1.5710   -4.1790    0.8290 n         1 MOL     -0.341113
     20 C7          1.5660   -5.3810   -0.1460 c3        1 MOL     -0.030668
     21 C8          2.7700   -5.3620   -1.0970 c         1 MOL      0.584261
     22 O5          2.9840   -6.3980   -1.6950 o         1 MOL     -0.586285
     23 C9          0.1660   -5.2420   -0.8360 c3        1 MOL      0.286321
     24 C10        -0.1930   -6.6030   -1.4790 c3        1 MOL     -0.245542
     25 C11        -1.7320   -6.5750   -1.8580 c3        1 MOL      0.112497
     26 C12        -2.0410   -7.7700   -2.7490 c3        1 MOL      0.179241
     27 N3         -3.4210   -7.7930   -3.2310 n4        1 MOL     -0.313863
     28 H8          1.3840   -3.2880    0.3800 hn        1 MOL     -0.104023
     29 H9          1.5470   -6.3080    0.4290 h1        1 MOL      0.102997
     30 H10         0.1690   -4.5370   -1.6620 hc        1 MOL     -0.020811
     31 H11        -0.6270   -5.0820   -0.0980 hc        1 MOL     -0.020811
     32 H12        -0.1050   -7.4520   -0.7940 hc        1 MOL      0.067651
     33 H13         0.2840   -6.7090   -2.4550 hc        1 MOL      0.067651
     34 H14        -1.9560   -5.7150   -2.4860 hc        1 MOL     -0.012635
     35 H15        -2.3380   -6.6040   -0.9520 hc        1 MOL     -0.012635
     36 H16        -1.7910   -8.7150   -2.2590 hx        1 MOL      0.023305
     37 H17        -1.4350   -7.7480   -3.6480 hx        1 MOL      0.023305
     38 H18        -4.1250   -7.9920   -2.5270 hn        1 MOL      0.253789
     39 H19        -3.6280   -7.0190   -3.8380 hn        1 MOL      0.253789
     40 H20        -3.4970   -8.6230   -3.8090 hn        1 MOL      0.253789
     41 N4          3.5120   -4.2380   -1.1970 n         1 MOL     -0.260967
     42 C13         4.8000   -4.0830   -1.9640 c3        1 MOL      0.022025
     43 C14         5.8650   -3.4470   -1.1090 c         1 MOL      0.309727
     44 O6          6.9350   -3.1300   -1.6300 o         1 MOL     -0.500407
     45 C15         4.6150   -3.2240   -3.2430 c3        1 MOL     -0.268118
     46 C16         3.8960   -1.9360   -2.9500 c         1 MOL      0.815210
     47 O7          2.6990   -1.7980   -3.2780 o         1 MOL     -0.742668
     48 O8          4.3980   -0.9540   -2.2850 o         1 MOL     -0.742668
     49 H21         3.3430   -3.5350   -0.4840 hn        1 MOL      0.121822
     50 H22         5.2140   -5.0610   -2.2160 h1        1 MOL      0.132370
     51 H23         4.0460   -3.8580   -3.9190 hc        1 MOL      0.093017
     52 H24         5.5880   -3.0350   -3.7030 hc        1 MOL      0.093017
     53 N5          5.6770   -3.0420    0.1290 n         1 MOL      0.009917
     54 C17         6.7690   -2.5240    0.9250 c3        1 MOL     -0.383554
     55 C18         7.3070   -1.1610    0.6440 c         1 MOL      0.712398
     56 O9          8.3450   -0.9360    1.1620 o         1 MOL     -0.578486
     57 H25         4.8490   -3.4050    0.5910 hn        1 MOL      0.174689
     58 H26         7.6330   -3.1940    0.8600 h1        1 MOL      0.141377
     59 H27         6.3560   -2.3260    1.9100 h1        1 MOL      0.141377
     60 N6          6.8080   -0.3430   -0.2330 n         1 MOL     -0.261565
     61 C19         7.2650    0.9510   -0.6920 c3        1 MOL      0.048393
     62 C20         6.1590    2.0570   -0.7200 c         1 MOL      0.497425
     63 O10         4.9580    1.7430   -0.7230 o         1 MOL     -0.471277
     64 C21         7.8980    0.6490   -2.0320 c3        1 MOL     -0.239954
     65 C22         9.2590   -0.1110   -1.8520 c         1 MOL      0.672704
     66 N7          9.2620   -1.3920   -2.0390 n         1 MOL     -0.822220
     67 O11        10.2640    0.4650   -1.4740 o         1 MOL     -0.569900
     68 H28         5.9210   -0.6290   -0.6080 hn        1 MOL      0.109412
     69 H29         8.0030    1.3880   -0.0170 h1        1 MOL      0.047771
     70 H30         8.1420    1.6000   -2.5150 hc        1 MOL      0.055701
     71 H31         7.1820    0.0760   -2.6220 hc        1 MOL      0.055701
     72 H32         8.3970   -1.9080   -2.1190 hn        1 MOL      0.386177
     73 H33        10.1200   -1.8660   -1.8000 hn        1 MOL      0.386177
     74 N8          6.5700    3.2980   -0.6700 n         1 MOL     -0.395152
     75 C23         5.6870    4.4960   -0.9070 c3        1 MOL     -0.080846
     76 C24         4.5140    4.6290    0.1290 c         1 MOL      0.643105
     77 O12         4.7700    4.7430    1.2820 o         1 MOL     -0.495483
     78 H34         7.5740    3.3980   -0.5880 hn        1 MOL      0.322095
     79 H35         5.2150    4.3530   -1.8740 h1        1 MOL      0.072841
     80 H36         6.2490    5.4300   -0.9310 h1        1 MOL      0.072841
     81 N9          3.2840    4.8150   -0.3890 n         1 MOL     -0.601574
     82 C25         2.1210    4.8160    0.5050 c3        1 MOL      0.032195
     83 C26         1.8270    3.4380    1.0340 c         1 MOL      0.707703
     84 O13         2.5920    2.5030    0.6820 o         1 MOL     -0.543964
     85 C27         0.9390    5.3690   -0.2860 c3        1 MOL     -0.220218
     86 C28         1.0580    6.8270   -0.5950 ca        1 MOL      0.259823
     87 C29         1.4330    7.8110    0.3470 ca        1 MOL     -0.267834
     88 C30         0.6800    7.2520   -1.8410 ca        1 MOL     -0.267834
     89 C31         1.4410    9.1880   -0.0210 ca        1 MOL     -0.189500
     90 C32         0.6120    8.6130   -2.2610 ca        1 MOL     -0.189500
     91 C33         1.1860    9.5310   -1.3350 ca        1 MOL      0.267195
     92 O14         1.3240   10.8280   -1.7290 oh        1 MOL     -0.462494
     93 H37         3.1330    4.7170   -1.3790 hn        1 MOL      0.286103
     94 H38         2.3320    5.3450    1.4410 h1        1 MOL      0.112007
     95 H39         0.1010    5.2870    0.4080 hc        1 MOL      0.060508
     96 H40         0.8240    4.7660   -1.1920 hc        1 MOL      0.060508
     97 H41         1.7280    7.4830    1.3320 ha        1 MOL      0.141946
     98 H42         0.3250    6.4970   -2.5270 ha        1 MOL      0.141946
     99 H43         1.8190    9.8950    0.7050 ha        1 MOL      0.160681
    100 H44         0.1030    8.9880   -3.1410 ha        1 MOL      0.160681
    101 H45         1.8340   11.3360   -1.0910 ho        1 MOL      0.358785
    102 N10         0.8730    3.2580    2.0130 n         1 MOL     -0.731010
    103 C34         0.3840    2.0750    2.7260 c3        1 MOL      0.073098
    104 C35         0.0640    0.8430    1.7730 c         1 MOL      0.468921
    105 O15         0.9610    0.1720    1.2300 o         1 MOL     -0.293278
    106 C36         1.3580    1.6860    3.8190 c3        1 MOL      0.236414
    107 C37         0.8060    0.6210    4.8400 c3        1 MOL     -0.127245
    108 C38         1.8540    2.8720    4.7020 c3        1 MOL     -0.217733
    109 C39        -0.4840    0.9920    5.5600 c3        1 MOL     -0.243996
    110 H46         0.5500    4.1090    2.4470 hn        1 MOL      0.361491
    111 H47        -0.5720    2.2770    3.2100 h1        1 MOL      0.048309
    112 H48         2.2220    1.2950    3.2890 hc        1 MOL     -0.003273
    113 H49         1.5070    0.1940    5.5540 hc        1 MOL      0.070746
    114 H50         0.6010   -0.2720    4.2550 hc        1 MOL      0.070746
    115 H51         2.2720    3.7090    4.1440 hc        1 MOL      0.051836
    116 H52         1.0230    3.2790    5.2760 hc        1 MOL      0.051836
    117 H53         2.6800    2.5410    5.3300 hc        1 MOL      0.051836
    118 H54        -1.3050    0.9880    4.8520 hc        1 MOL      0.063880
    119 H55        -0.6770    0.2950    6.3790 hc        1 MOL      0.063880
    120 H56        -0.4270    1.9690    6.0370 hc        1 MOL      0.063880
    121 N11        -1.2210    0.6060    1.5460 n         1 MOL     -0.497170
    122 C40        -1.6370   -0.3940    0.5030 c3        1 MOL     -0.114901
    123 C41        -3.0510   -0.2240   -0.1350 c         1 MOL      0.770403
    124 O16        -3.3130   -0.8330   -1.1620 o         1 MOL     -0.566254
    125 C42        -1.4320   -1.8410    0.9610 c3        1 MOL      0.582848
    126 O17        -1.9800   -1.9040    2.2600 oh        1 MOL     -0.678142
    127 H57        -1.9060    1.0640    2.1320 hn        1 MOL      0.322331
    128 H58        -0.9030   -0.2030   -0.2700 h1        1 MOL      0.035943
    129 H59        -0.3820   -2.1070    1.0220 h1        1 MOL     -0.093407
    130 H60        -1.9490   -2.4940    0.2480 h1        1 MOL     -0.093407
    131 H61        -1.5370   -2.5160    2.8690 ho        1 MOL      0.407269
    132 N12        -4.0170    0.5270    0.4810 n         1 MOL     -0.738324
    133 C43        -5.4040    0.5720    0.0850 c3        1 MOL      0.326371
    134 C44        -5.6090    1.1870   -1.3570 c         1 MOL      0.540921
    135 O18        -4.8070    2.0060   -1.7970 o         1 MOL     -0.580437
    136 C45        -6.1450    1.3500    1.1450 c3        1 MOL     -0.450116
    137 H62        -3.7090    1.1450    1.2280 hn        1 MOL      0.334574
    138 H63        -5.8920   -0.4110    0.0770 h1        1 MOL      0.060727
    139 H64        -7.0860    1.6710    0.6930 hc        1 MOL      0.132337
    140 H65        -6.4060    0.6510    1.9400 hc        1 MOL      0.132337
    141 H66        -5.5340    2.1600    1.5670 hc        1 MOL      0.132337
    142 N13        -6.5670    0.7880   -2.1630 n         1 MOL     -0.505827
    143 C46        -7.5910   -0.1250   -1.8510 c3        1 MOL      0.219441
    144 C47        -8.8230    0.2560   -2.6660 c         1 MOL      0.345554
    145 O19        -8.8220    0.3370   -3.8920 o         1 MOL     -0.506892
    146 C48        -7.1320   -1.5600   -2.1350 c3        1 MOL     -0.114895
    147 H67        -6.4920    1.2040   -3.0720 hn        1 MOL      0.315620
    148 H68        -7.8190    0.0550   -0.8010 h1        1 MOL     -0.033157
    149 H69        -6.2830   -1.8710   -1.5400 hc        1 MOL      0.040236
    150 H70        -7.9160   -2.3000   -1.9580 hc        1 MOL      0.040236
    151 H71        -6.8590   -1.7020   -3.1850 hc        1 MOL      0.040236
    152 N14       -10.0300    0.3770   -2.0470 n         1 MOL     -0.231051
    153 C49       -10.4800    0.1350   -0.6230 c3        1 MOL     -0.219214
    154 C50        -9.9740    1.2680    0.2950 c         1 MOL      0.442477
    155 O20        -9.5060    0.9670    1.3800 o         1 MOL     -0.499900
    156 C51       -11.9940   -0.0760   -0.5930 c3        1 MOL      0.073110
    157 C52       -12.5190   -0.5550    0.7190 c3        1 MOL     -0.256707
    158 C53       -13.9770   -1.0490    0.6830 c         1 MOL      0.717795
    159 O21       -14.8830   -0.3600    1.1340 o         1 MOL     -0.656831
    160 O22       -14.1740   -2.2070    0.1740 o         1 MOL     -0.656831
    161 H72       -10.7500    0.5430   -2.7380 hn        1 MOL      0.223706
    162 H73       -10.0230   -0.8250   -0.3450 h1        1 MOL      0.152867
    163 H74       -12.2020   -0.8380   -1.3450 hc        1 MOL      0.021576
    164 H75       -12.5750    0.8330   -0.8000 hc        1 MOL      0.021576
    165 H76       -12.4330    0.3620    1.3080 hc        1 MOL      0.062913
    166 H77       -11.9930   -1.4250    1.1130 hc        1 MOL      0.062913
    167 N15       -10.0260    2.5290   -0.2120 n         1 MOL     -0.232886
    168 C54        -9.4130    3.6640    0.4960 c3        1 MOL     -0.084671
    169 H78        -9.3020    3.4160    1.5520 h1        1 MOL      0.065140
    170 H79        -8.4320    3.8730    0.0680 h1        1 MOL      0.065140
    171 H80       -10.0490    4.5430    0.3950 h1        1 MOL      0.065140
    172 H81       -10.3400    2.7470   -1.1480 hn        1 MOL      0.227836
    173 Ca1         2.7100    0.4510   -0.8880 Ca        1 MOL      1.809096
    174 O23         0.5600    1.5150   -1.8080 oh        1 MOL     -0.897182
    175 H82        -0.0690    2.2380   -1.7170 ho        1 MOL      0.437243
    176 H83         0.4540    1.2220   -2.7090 ho        1 MOL      0.437243
    177 O24         0.7670   -1.8630   -1.6660 oh        1 MOL     -0.897182
    178 H84         0.0590   -2.3650   -2.0720 ho        1 MOL      0.437243
    179 H85         1.5040   -1.9650   -2.2680 ho        1 MOL      0.437243
    180 O25         3.2950    2.0900   -2.8720 oh        1 MOL     -0.897182
    181 H86         3.9710    1.9950   -3.5430 ho        1 MOL      0.437243
    182 H87         3.0540    3.0140   -2.9120 ho        1 MOL      0.437243
@<TRIPOS>BOND
     1    1    2 1   
     2    1    4 1   
     3    1    5 1   
     4    1    6 1   
     5    2    3 2   
     6    2    7 1   
     7    7    8 1   
     8    7   15 1   
     9    8    9 1   
    10    8   11 1   
    11    8   16 1   
    12    9   10 2   
    13    9   19 1   
    14   11   12 1   
    15   11   17 1   
    16   11   18 1   
    17   12   13 1   
    18   12   14 1   
    19   19   20 1   
    20   19   28 1   
    21   20   21 1   
    22   20   23 1   
    23   20   29 1   
    24   21   22 2   
    25   21   41 1   
    26   23   24 1   
    27   23   30 1   
    28   23   31 1   
    29   24   25 1   
    30   24   32 1   
    31   24   33 1   
    32   25   26 1   
    33   25   34 1   
    34   25   35 1   
    35   26   27 1   
    36   26   36 1   
    37   26   37 1   
    38   27   38 1   
    39   27   39 1   
    40   27   40 1   
    41   41   42 1   
    42   41   49 1   
    43   42   43 1   
    44   42   45 1   
    45   42   50 1   
    46   43   44 2   
    47   43   53 1   
    48   45   46 1   
    49   45   51 1   
    50   45   52 1   
    51   46   47 1   
    52   46   48 1   
    53   53   54 1   
    54   53   57 1   
    55   54   55 1   
    56   54   58 1   
    57   54   59 1   
    58   55   56 2   
    59   55   60 1   
    60   60   61 1   
    61   60   68 1   
    62   61   62 1   
    63   61   64 1   
    64   61   69 1   
    65   62   63 2   
    66   62   74 1   
    67   64   65 1   
    68   64   70 1   
    69   64   71 1   
    70   65   66 1   
    71   65   67 2   
    72   66   72 1   
    73   66   73 1   
    74   74   75 1   
    75   74   78 1   
    76   75   76 1   
    77   75   79 1   
    78   75   80 1   
    79   76   77 2   
    80   76   81 1   
    81   81   82 1   
    82   81   93 1   
    83   82   83 1   
    84   82   85 1   
    85   82   94 1   
    86   83   84 2   
    87   83  102 1   
    88   85   86 1   
    89   85   95 1   
    90   85   96 1   
    91   86   87 ar  
    92   86   88 ar  
    93   87   89 ar  
    94   87   97 1   
    95   88   90 ar  
    96   88   98 1   
    97   89   91 ar  
    98   89   99 1   
    99   90   91 ar  
   100   90  100 1   
   101   91   92 1   
   102   92  101 1   
   103  102  103 1   
   104  102  110 1   
   105  103  104 1   
   106  103  106 1   
   107  103  111 1   
   108  104  105 2   
   109  104  121 1   
   110  106  107 1   
   111  106  108 1   
   112  106  112 1   
   113  107  109 1   
   114  107  113 1   
   115  107  114 1   
   116  108  115 1   
   117  108  116 1   
   118  108  117 1   
   119  109  118 1   
   120  109  119 1   
   121  109  120 1   
   122  121  122 1   
   123  121  127 1   
   124  122  123 1   
   125  122  125 1   
   126  122  128 1   
   127  123  124 2   
   128  123  132 1   
   129  125  126 1   
   130  125  129 1   
   131  125  130 1   
   132  126  131 1   
   133  132  133 1   
   134  132  137 1   
   135  133  134 1   
   136  133  136 1   
   137  133  138 1   
   138  134  135 2   
   139  134  142 1   
   140  136  139 1   
   141  136  140 1   
   142  136  141 1   
   143  142  143 1   
   144  142  147 1   
   145  143  144 1   
   146  143  146 1   
   147  143  148 1   
   148  144  145 2   
   149  144  152 1   
   150  146  149 1   
   151  146  150 1   
   152  146  151 1   
   153  152  153 1   
   154  152  161 1   
   155  153  154 1   
   156  153  156 1   
   157  153  162 1   
   158  154  155 2   
   159  154  167 1   
   160  156  157 1   
   161  156  163 1   
   162  156  164 1   
   163  157  158 1   
   164  157  165 1   
   165  157  166 1   
   166  158  159 1   
   167  158  160 1   
   168  167  168 1   
   169  167  172 1   
   170  168  169 1   
   171  168  170 1   
   172  168  171 1   
   173  174  175 1   
   174  174  176 1   
   175  177  178 1   
   176  177  179 1   
   177  180  181 1   
   178  180  182 1   
@<TRIPOS>SUBSTRUCTURE
     1 MOL         1 TEMP              0 ****  ****    0 ROOT
