@<TRIPOS>MOLECULE
MOL
  181   177     1     0     0
SMALL
resp


@<TRIPOS>ATOM
      1 C1          6.1810    3.5320    5.1490 c3        1 MOL     -0.361661
      2 C2          5.6370    2.3370    4.2920 c         1 MOL      0.672960
      3 O1          4.4780    1.9490    4.4620 o         1 MOL     -0.574322
      4 H1          7.1000    3.2290    5.6500 hc        1 MOL      0.093226
      5 H2          6.3850    4.3830    4.4990 hc        1 MOL      0.093226
      6 H3          5.4370    3.8130    5.8940 hc        1 MOL      0.093226
      7 N1          6.3380    1.6810    3.3630 n         1 MOL     -0.365077
      8 C3          7.7950    1.7530    3.0860 c3        1 MOL     -0.188057
      9 C4          8.3860    0.4050    2.6920 c         1 MOL      0.577091
     10 O2          7.9780   -0.5560    3.2700 o         1 MOL     -0.467536
     11 C5          8.0680    2.8000    2.0060 c3        1 MOL     -0.045880
     12 C6          7.1880    2.4990    0.7730 c         1 MOL      0.574895
     13 O3          6.2360    3.2840    0.5370 o         1 MOL     -0.682143
     14 O4          7.4250    1.5630   -0.0210 o         1 MOL     -0.682143
     15 H4          5.7540    1.0040    2.8920 hn        1 MOL      0.298909
     16 H5          8.3220    2.0090    4.0000 h1        1 MOL      0.125198
     17 H6          9.1320    2.8140    1.7580 hc        1 MOL      0.012404
     18 H7          7.7810    3.7990    2.3550 hc        1 MOL      0.012404
     19 N2          9.4730    0.2890    1.9050 n         1 MOL     -0.634665
     20 C7         10.0550   -1.0150    1.5570 c3        1 MOL      0.473389
     21 C8          9.0300   -2.0450    0.9700 c         1 MOL      0.333303
     22 O5          9.3460   -3.2090    0.9660 o         1 MOL     -0.532376
     23 C9         11.0340   -1.4370    2.6050 c3        1 MOL     -0.351873
     24 H8          9.9550    1.0860    1.5370 hn        1 MOL      0.331494
     25 H9         10.6580   -0.8480    0.6760 h1        1 MOL     -0.026111
     26 H10        11.5600   -2.3070    2.2160 hc        1 MOL      0.079897
     27 H11        11.8340   -0.6940    2.6200 hc        1 MOL      0.079897
     28 H12        10.6230   -1.6930    3.5730 hc        1 MOL      0.079897
     29 N3          7.8790   -1.5550    0.4460 n         1 MOL     -0.141544
     30 C10         6.8660   -2.5120   -0.0410 c3        1 MOL      0.153621
     31 C11         6.4280   -2.3750   -1.5200 c         1 MOL      0.264213
     32 O6          6.1090   -1.3250   -1.9820 o         1 MOL     -0.379577
     33 C12         5.6600   -2.6760    0.8450 c3        1 MOL      0.148469
     34 C13         4.9630   -1.4130    1.3440 c         1 MOL      0.492736
     35 O7          4.3640   -1.5190    2.4260 o         1 MOL     -0.621346
     36 O8          5.0900   -0.3710    0.7240 o         1 MOL     -0.621346
     37 H13         7.7180   -0.5630    0.3370 hn        1 MOL      0.006163
     38 H14         7.3670   -3.4850   -0.0880 h1        1 MOL     -0.006531
     39 H15         5.9720   -3.2310    1.7250 hc        1 MOL     -0.040511
     40 H16         4.9790   -3.3220    0.2990 hc        1 MOL     -0.040511
     41 N4          6.1160   -3.5390   -2.1570 n         1 MOL     -0.351141
     42 C14         5.3800   -3.5540   -3.4480 c3        1 MOL     -0.278598
     43 C15         3.9200   -3.0830   -3.3230 c         1 MOL      0.501002
     44 O9          3.2480   -2.9430   -4.3470 o         1 MOL     -0.544333
     45 H17         6.3280   -4.4320   -1.7160 hn        1 MOL      0.284897
     46 H18         5.3890   -4.5470   -3.8980 h1        1 MOL      0.153674
     47 H19         5.9160   -2.9570   -4.1840 h1        1 MOL      0.153674
     48 N5          3.4020   -2.8310   -2.0920 n         1 MOL     -0.308090
     49 C16         2.0540   -2.3240   -1.8420 c3        1 MOL      0.005633
     50 C17         2.0310   -0.7580   -1.7450 c         1 MOL      0.399751
     51 O10         2.9850   -0.1800   -1.2260 o         1 MOL     -0.486294
     52 C18         1.4580   -3.0110   -0.5760 c3        1 MOL      0.071843
     53 C19         1.2360   -4.5580   -0.6670 c         1 MOL      0.457855
     54 N6          1.3650   -5.1490    0.5000 n         1 MOL     -0.712427
     55 O11         1.0460   -5.1850   -1.6890 o         1 MOL     -0.501137
     56 H20         3.9690   -3.0350   -1.2780 hn        1 MOL      0.279011
     57 H21         1.4050   -2.6190   -2.6730 h1        1 MOL      0.083151
     58 H22         0.4920   -2.5490   -0.3660 hc        1 MOL     -0.011585
     59 H23         2.1290   -2.8150    0.2580 hc        1 MOL     -0.011585
     60 H24         1.6960   -4.6930    1.3330 hn        1 MOL      0.361655
     61 H25         1.1620   -6.1380    0.5020 hn        1 MOL      0.361655
     62 N7          1.0130   -0.1300   -2.2700 n         1 MOL     -0.441803
     63 C20         0.9730    1.3160   -2.3430 c3        1 MOL      0.237085
     64 C21         0.4210    1.8140   -3.7190 c         1 MOL      0.514993
     65 O12         0.4430    1.1230   -4.7310 o         1 MOL     -0.531634
     66 H26         0.3070   -0.6080   -2.8180 hn        1 MOL      0.333477
     67 H27         1.9600    1.7740   -2.2880 h1        1 MOL     -0.002457
     68 H28         0.4340    1.7230   -1.4840 h1        1 MOL     -0.002457
     69 N8         -0.2710    2.9870   -3.7440 n         1 MOL     -0.532422
     70 C22        -0.5030    3.9090   -2.5700 c3        1 MOL     -0.055819
     71 C23        -1.5520    3.3150   -1.6340 c         1 MOL      0.470647
     72 O13        -2.4830    2.5740   -2.0790 o         1 MOL     -0.492632
     73 C24        -0.8130    5.3910   -2.9700 c3        1 MOL      0.455268
     74 C25        -0.8410    6.4330   -1.8730 c3        1 MOL     -0.317308
     75 O14         0.1450    5.8580   -3.8400 oh        1 MOL     -0.636749
     76 H29        -0.5920    3.3370   -4.6420 hn        1 MOL      0.317422
     77 H30         0.4760    3.8990   -2.0940 h1        1 MOL      0.094621
     78 H31        -1.7760    5.4310   -3.4740 h1        1 MOL     -0.007911
     79 H32        -0.3560    6.2520   -4.5490 ho        1 MOL      0.383007
     80 H33        -1.4730    6.1040   -1.0530 hc        1 MOL      0.083941
     81 H34         0.1940    6.5770   -1.5540 hc        1 MOL      0.083941
     82 H35        -1.2290    7.4070   -2.1720 hc        1 MOL      0.083941
     83 N9         -1.4290    3.5570   -0.3120 n         1 MOL     -0.490220
     84 C26        -2.3840    3.0060    0.6290 c3        1 MOL      0.129809
     85 C27        -3.0010    4.2420    1.3810 c         1 MOL      0.560374
     86 O15        -2.2660    4.9440    2.1100 o         1 MOL     -0.586059
     87 C28        -1.6990    2.1010    1.6840 c3        1 MOL      0.058078
     88 C29        -0.8830    0.9680    1.1240 c3        1 MOL     -0.010467
     89 C30        -2.6990    1.4810    2.7130 c3        1 MOL     -0.349963
     90 C31        -1.7860    0.1670    0.1000 c3        1 MOL     -0.121102
     91 H36        -0.6350    4.0780    0.0430 hn        1 MOL      0.252626
     92 H37        -3.2120    2.4610    0.1810 h1        1 MOL      0.057661
     93 H38        -0.9440    2.6830    2.2070 hc        1 MOL      0.008942
     94 H39        -0.5440    0.3080    1.9220 hc        1 MOL      0.004557
     95 H40         0.0500    1.2670    0.6460 hc        1 MOL      0.004557
     96 H41        -3.3700    0.7350    2.2850 hc        1 MOL      0.101467
     97 H42        -2.1800    1.0200    3.5550 hc        1 MOL      0.101467
     98 H43        -3.3840    2.2200    3.1170 hc        1 MOL      0.101467
     99 H44        -1.6060    0.4880   -0.9260 hc        1 MOL      0.054104
    100 H45        -1.5410   -0.9000    0.0520 hc        1 MOL      0.054104
    101 H46        -2.8370    0.3360    0.3320 hc        1 MOL      0.054104
    102 N10        -4.2910    4.5780    1.1250 n         1 MOL     -0.432342
    103 C32        -5.1890    3.9990    0.0940 c3        1 MOL      0.028179
    104 C33        -5.7640    2.6620    0.5560 c         1 MOL      0.647819
    105 O16        -5.5340    2.2220    1.6930 o         1 MOL     -0.547952
    106 C34        -6.3250    4.9910   -0.2780 c3        1 MOL     -0.168849
    107 C35        -6.9520    5.8370    0.8460 c         1 MOL      0.743412
    108 O17        -8.2020    5.7550    1.0550 o         1 MOL     -0.718671
    109 O18        -6.2590    6.7160    1.3800 o         1 MOL     -0.718671
    110 H47        -4.6160    5.3940    1.6360 hn        1 MOL      0.281708
    111 H48        -4.7470    3.6540   -0.8350 h1        1 MOL      0.048104
    112 H49        -7.1270    4.4640   -0.7940 hc        1 MOL      0.015981
    113 H50        -5.9040    5.6530   -1.0370 hc        1 MOL      0.015981
    114 N11        -6.6110    1.9770   -0.2730 n         1 MOL     -0.685561
    115 C36        -7.1530    0.6840    0.0770 c3        1 MOL      0.335899
    116 C37        -7.4230   -0.0810   -1.2170 c         1 MOL      0.415603
    117 O19        -7.7130    0.5970   -2.2160 o         1 MOL     -0.536274
    118 C38        -8.3650    0.8980    0.9010 c3        1 MOL     -0.280985
    119 C39        -9.1490   -0.2540    1.3530 ca        1 MOL      0.151578
    120 C40       -10.1900   -0.7470    0.5750 ca        1 MOL     -0.221554
    121 C41        -8.8150   -0.9600    2.5310 ca        1 MOL     -0.221554
    122 C42       -10.8850   -1.9330    0.9770 ca        1 MOL     -0.041183
    123 C43        -9.5050   -2.1290    2.9040 ca        1 MOL     -0.041183
    124 C44       -10.5880   -2.5710    2.1790 ca        1 MOL     -0.201677
    125 H51        -6.8340    2.3690   -1.1800 hn        1 MOL      0.355318
    126 H52        -6.4490    0.1450    0.6970 h1        1 MOL      0.025668
    127 H53        -8.9600    1.5610    0.2620 hc        1 MOL      0.103098
    128 H54        -8.1250    1.4800    1.7920 hc        1 MOL      0.103098
    129 H55       -10.4870   -0.2220   -0.3210 ha        1 MOL      0.130201
    130 H56        -8.0230   -0.6140    3.1800 ha        1 MOL      0.130201
    131 H57       -11.7940   -2.1900    0.4690 ha        1 MOL      0.083509
    132 H58        -9.1240   -2.6890    3.7420 ha        1 MOL      0.083509
    133 H59       -11.0860   -3.4940    2.4130 ha        1 MOL      0.116315
    134 N12        -7.2650   -1.4650   -1.2880 n         1 MOL     -0.209011
    135 C45        -6.7930   -2.3200   -0.2640 c3        1 MOL      0.711361
    136 C46        -5.3030   -2.2500    0.0340 c         1 MOL      0.213418
    137 O20        -4.7130   -1.2150   -0.3240 o         1 MOL     -0.583113
    138 C47        -7.1220   -3.7330   -0.6210 c3        1 MOL     -0.221483
    139 C48        -8.1260   -3.6250   -1.7420 c3        1 MOL      0.285698
    140 C49        -7.7840   -2.2960   -2.4020 c3        1 MOL     -0.313710
    141 H60        -7.2610   -2.1470    0.7000 h1        1 MOL     -0.157396
    142 H61        -6.2620   -4.3390   -0.9200 hc        1 MOL      0.030225
    143 H62        -7.5200   -4.1320    0.3160 hc        1 MOL      0.030225
    144 H63        -8.1490   -4.5000   -2.3960 hc        1 MOL     -0.063662
    145 H64        -9.1430   -3.5280   -1.3520 hc        1 MOL     -0.063662
    146 H65        -6.9200   -2.4670   -3.0410 h1        1 MOL      0.120665
    147 H66        -8.6220   -1.8240   -2.9040 h1        1 MOL      0.120665
    148 N13        -4.6940   -3.2050    0.7760 n         1 MOL     -0.088128
    149 C50        -3.2770   -3.1200    1.1290 c3        1 MOL      0.065657
    150 C51        -2.9520   -3.6860    2.5140 c         1 MOL      0.469575
    151 O21        -1.8500   -4.1800    2.7370 o         1 MOL     -0.554778
    152 C52        -2.4730   -3.8020   -0.0150 c3        1 MOL     -0.110462
    153 C53        -2.5420   -5.3610   -0.1270 c3        1 MOL     -0.165720
    154 C54        -3.8950   -5.8320   -0.5710 c         1 MOL      0.738946
    155 O22        -4.7270   -6.2820    0.3120 o         1 MOL     -0.725210
    156 O23        -4.1570   -5.8800   -1.7930 o         1 MOL     -0.725210
    157 H67        -5.1540   -4.0930    0.9080 hn        1 MOL      0.091078
    158 H68        -2.9340   -2.0860    1.0910 h1        1 MOL      0.083931
    159 H69        -1.4310   -3.4850    0.0910 hc        1 MOL      0.059880
    160 H70        -2.7250   -3.3910   -1.0020 hc        1 MOL      0.059880
    161 H71        -2.1690   -5.9090    0.7380 hc        1 MOL      0.034101
    162 H72        -1.9080   -5.6710   -0.9560 hc        1 MOL      0.034101
    163 N14        -3.7860   -3.7570    3.5470 n         1 MOL     -0.403818
    164 C55        -4.8660   -2.8730    3.9810 c3        1 MOL     -0.071020
    165 H73        -5.7690   -3.4600    4.1480 h1        1 MOL      0.059924
    166 H74        -4.5790   -2.3770    4.9070 h1        1 MOL      0.059924
    167 H75        -5.0560   -2.1260    3.2100 h1        1 MOL      0.059924
    168 H76        -3.3390   -4.1160    4.3800 hn        1 MOL      0.284768
    169 Ca1         5.1330    1.2310   -1.2390 Ca        1 MOL      1.728929
    170 O24         3.2490    2.5230    0.3270 oh        1 MOL     -0.849520
    171 H77         2.9790    2.0670    1.1230 ho        1 MOL      0.418523
    172 H78         2.5790    3.2040    0.2080 ho        1 MOL      0.418523
    173 O25         4.1070    3.2330   -2.6540 oh        1 MOL     -0.849520
    174 H79         4.3840    3.5730   -3.5060 ho        1 MOL      0.418523
    175 H80         3.6860    3.9790   -2.2250 ho        1 MOL      0.418523
    176 O26         4.6000    0.3170   -3.7480 oh        1 MOL     -0.849520
    177 H81         5.1620   -0.3720   -4.0960 ho        1 MOL      0.418523
    178 H82         4.0990    0.6260   -4.5030 ho        1 MOL      0.418523
    179 O27         7.1760    1.5340   -3.0890 oh        1 MOL     -0.849520
    180 H83         7.7370    1.1670   -3.7780 ho        1 MOL      0.418523
    181 H84         7.5370    2.4060   -2.9300 ho        1 MOL      0.418523
@<TRIPOS>BOND
     1    1    2 1   
     2    1    4 1   
     3    1    5 1   
     4    1    6 1   
     5    2    3 2   
     6    2    7 1   
     7    7    8 1   
     8    7   15 1   
     9    8    9 1   
    10    8   11 1   
    11    8   16 1   
    12    9   10 2   
    13    9   19 1   
    14   11   12 1   
    15   11   17 1   
    16   11   18 1   
    17   12   13 1   
    18   12   14 1   
    19   19   20 1   
    20   19   24 1   
    21   20   21 1   
    22   20   23 1   
    23   20   25 1   
    24   21   22 2   
    25   21   29 1   
    26   23   26 1   
    27   23   27 1   
    28   23   28 1   
    29   29   30 1   
    30   29   37 1   
    31   30   31 1   
    32   30   33 1   
    33   30   38 1   
    34   31   32 2   
    35   31   41 1   
    36   33   34 1   
    37   33   39 1   
    38   33   40 1   
    39   34   35 1   
    40   34   36 1   
    41   41   42 1   
    42   41   45 1   
    43   42   43 1   
    44   42   46 1   
    45   42   47 1   
    46   43   44 2   
    47   43   48 1   
    48   48   49 1   
    49   48   56 1   
    50   49   50 1   
    51   49   52 1   
    52   49   57 1   
    53   50   51 2   
    54   50   62 1   
    55   52   53 1   
    56   52   58 1   
    57   52   59 1   
    58   53   54 1   
    59   53   55 2   
    60   54   60 1   
    61   54   61 1   
    62   62   63 1   
    63   62   66 1   
    64   63   64 1   
    65   63   67 1   
    66   63   68 1   
    67   64   65 2   
    68   64   69 1   
    69   69   70 1   
    70   69   76 1   
    71   70   71 1   
    72   70   73 1   
    73   70   77 1   
    74   71   72 2   
    75   71   83 1   
    76   73   74 1   
    77   73   75 1   
    78   73   78 1   
    79   74   80 1   
    80   74   81 1   
    81   74   82 1   
    82   75   79 1   
    83   83   84 1   
    84   83   91 1   
    85   84   85 1   
    86   84   87 1   
    87   84   92 1   
    88   85   86 2   
    89   85  102 1   
    90   87   88 1   
    91   87   89 1   
    92   87   93 1   
    93   88   90 1   
    94   88   94 1   
    95   88   95 1   
    96   89   96 1   
    97   89   97 1   
    98   89   98 1   
    99   90   99 1   
   100   90  100 1   
   101   90  101 1   
   102  102  103 1   
   103  102  110 1   
   104  103  104 1   
   105  103  106 1   
   106  103  111 1   
   107  104  105 2   
   108  104  114 1   
   109  106  107 1   
   110  106  112 1   
   111  106  113 1   
   112  107  108 1   
   113  107  109 1   
   114  114  115 1   
   115  114  125 1   
   116  115  116 1   
   117  115  118 1   
   118  115  126 1   
   119  116  117 2   
   120  116  134 1   
   121  118  119 1   
   122  118  127 1   
   123  118  128 1   
   124  119  120 ar  
   125  119  121 ar  
   126  120  122 ar  
   127  120  129 1   
   128  121  123 ar  
   129  121  130 1   
   130  122  124 ar  
   131  122  131 1   
   132  123  124 ar  
   133  123  132 1   
   134  124  133 1   
   135  134  135 1   
   136  134  140 1   
   137  135  136 1   
   138  135  138 1   
   139  135  141 1   
   140  136  137 2   
   141  136  148 1   
   142  138  139 1   
   143  138  142 1   
   144  138  143 1   
   145  139  140 1   
   146  139  144 1   
   147  139  145 1   
   148  140  146 1   
   149  140  147 1   
   150  148  149 1   
   151  148  157 1   
   152  149  150 1   
   153  149  152 1   
   154  149  158 1   
   155  150  151 2   
   156  150  163 1   
   157  152  153 1   
   158  152  159 1   
   159  152  160 1   
   160  153  154 1   
   161  153  161 1   
   162  153  162 1   
   163  154  155 1   
   164  154  156 1   
   165  163  164 1   
   166  163  168 1   
   167  164  165 1   
   168  164  166 1   
   169  164  167 1   
   170  170  171 1   
   171  170  172 1   
   172  173  174 1   
   173  173  175 1   
   174  176  177 1   
   175  176  178 1   
   176  179  180 1   
   177  179  181 1   
@<TRIPOS>SUBSTRUCTURE
     1 MOL         1 TEMP              0 ****  ****    0 ROOT
