@<TRIPOS>MOLECULE
MOL
  181   177     1     0     0
SMALL
resp


@<TRIPOS>ATOM
      1 C1          1.0400    6.7480   -2.0210 c3        1 MOL     -0.358051
      2 C2          2.3520    6.7380   -1.3140 c         1 MOL      0.665338
      3 O1          2.4240    7.2660   -0.1860 o         1 MOL     -0.586073
      4 H1          1.2040    6.8990   -3.0880 hc        1 MOL      0.083478
      5 H2          0.5340    5.7960   -1.8620 hc        1 MOL      0.083478
      6 H3          0.4230    7.5570   -1.6300 hc        1 MOL      0.083478
      7 N1          3.3430    6.0680   -1.9440 n         1 MOL     -0.479343
      8 C3          4.6990    5.8850   -1.4210 c3        1 MOL      0.067557
      9 C4          4.7770    4.6900   -0.4290 c         1 MOL      0.579958
     10 O2          4.6870    3.5600   -0.8930 o         1 MOL     -0.556579
     11 C5          5.6620    5.8220   -2.5650 c3        1 MOL     -0.221292
     12 C6          7.1970    5.6970   -2.1330 c         1 MOL      0.746083
     13 O3          7.5150    6.2550   -1.0280 o         1 MOL     -0.730927
     14 O4          8.0040    5.1810   -2.9020 o         1 MOL     -0.730927
     15 H4          3.1660    5.6850   -2.8600 hn        1 MOL      0.282065
     16 H5          4.8760    6.7850   -0.8250 h1        1 MOL      0.026969
     17 H6          5.5830    6.6390   -3.2740 hc        1 MOL      0.033422
     18 H7          5.4530    4.9130   -3.1440 hc        1 MOL      0.033422
     19 N2          5.0260    4.9580    0.8230 n         1 MOL     -0.575379
     20 C7          5.0820    3.9750    1.8800 c3        1 MOL      0.442109
     21 C8          3.7370    3.2530    2.0870 c         1 MOL      0.260344
     22 O5          2.6660    3.7230    1.6770 o         1 MOL     -0.494814
     23 C9          5.6320    4.6600    3.1780 c3        1 MOL     -0.358787
     24 H8          5.1350    5.9540    1.0200 hn        1 MOL      0.313359
     25 H9          5.8400    3.2390    1.6150 h1        1 MOL      0.044047
     26 H10         6.6300    5.0690    3.0100 hc        1 MOL      0.092983
     27 H11         4.9740    5.4740    3.4870 hc        1 MOL      0.092983
     28 H12         5.5910    3.9450    3.9930 hc        1 MOL      0.092983
     29 N3          3.7140    2.0760    2.7220 n         1 MOL     -0.150911
     30 C10         4.8480    1.2800    3.2090 c3        1 MOL     -0.100795
     31 C11         5.3420    0.2890    2.0940 c         1 MOL      0.292718
     32 O6          4.8540    0.1810    0.9750 o         1 MOL     -0.376541
     33 C12         4.3670    0.4470    4.4590 c3        1 MOL     -0.204286
     34 C13         2.9850   -0.2330    4.4630 c         1 MOL      0.599700
     35 O7          2.3140   -0.1730    3.4360 o         1 MOL     -0.641597
     36 O8          2.5470   -0.7210    5.5310 o         1 MOL     -0.641597
     37 H13         2.8080    1.6180    2.6970 hn        1 MOL      0.190721
     38 H14         5.6940    1.9000    3.5320 h1        1 MOL      0.081581
     39 H15         4.3760    1.2300    5.2150 hc        1 MOL      0.062787
     40 H16         5.1080   -0.2550    4.8340 hc        1 MOL      0.062787
     41 N4          6.2840   -0.5090    2.4270 n         1 MOL     -0.181997
     42 C14         6.7730   -1.6790    1.6890 c3        1 MOL     -0.092879
     43 C15         8.0210   -1.3070    0.8610 c         1 MOL      0.486886
     44 O9          8.8480   -0.3400    1.1860 o         1 MOL     -0.521960
     45 H17         6.5930   -0.4030    3.3810 hn        1 MOL      0.231369
     46 H18         6.0490   -2.0790    0.9840 h1        1 MOL      0.077750
     47 H19         6.9750   -2.5110    2.3650 h1        1 MOL      0.077750
     48 N5          8.3380   -2.1660   -0.0900 n         1 MOL     -0.512189
     49 C16         7.4000   -3.2230   -0.6410 c3        1 MOL      0.319987
     50 C17         6.4500   -2.5020   -1.6560 c         1 MOL      0.364813
     51 O10         6.5020   -1.3040   -1.9310 o         1 MOL     -0.437406
     52 C18         8.3300   -4.2880   -1.2960 c3        1 MOL     -0.427113
     53 C19         7.6420   -5.5710   -1.6480 c         1 MOL      0.785143
     54 N6          8.3730   -6.4330   -2.2850 n         1 MOL     -0.820553
     55 O11         6.5170   -5.8070   -1.2980 o         1 MOL     -0.577397
     56 H20         9.2920   -2.1690   -0.4290 hn        1 MOL      0.312834
     57 H21         6.9010   -3.6510    0.2230 h1        1 MOL      0.019311
     58 H22         9.0450   -4.4000   -0.4780 hc        1 MOL      0.107536
     59 H23         8.7620   -3.8900   -2.2200 hc        1 MOL      0.107536
     60 H24         9.3380   -6.1890   -2.4850 hn        1 MOL      0.377078
     61 H25         7.9220   -7.2930   -2.5760 hn        1 MOL      0.377078
     62 N7          5.3750   -3.2100   -2.0470 n         1 MOL     -0.211706
     63 C20         4.2730   -2.7110   -2.8690 c3        1 MOL     -0.179988
     64 C21         2.9940   -3.5820   -2.8880 c         1 MOL      0.592822
     65 O12         2.6510   -4.1180   -3.9280 o         1 MOL     -0.553860
     66 H26         5.4040   -4.1940   -1.8400 hn        1 MOL      0.160847
     67 H27         4.7050   -2.6180   -3.8620 h1        1 MOL      0.101700
     68 H28         3.9280   -1.7360   -2.5240 h1        1 MOL      0.101700
     69 N8          2.3020   -3.5990   -1.7230 n         1 MOL     -0.276043
     70 C22         1.0520   -4.2880   -1.5750 c3        1 MOL     -0.041175
     71 C23        -0.0730   -3.3790   -1.1090 c         1 MOL      0.642000
     72 O13         0.1310   -2.2520   -0.6450 o         1 MOL     -0.670839
     73 C24         1.2520   -5.4810   -0.5680 c3        1 MOL      0.415853
     74 C25         2.1810   -6.4680   -1.3150 c3        1 MOL     -0.429065
     75 O14         1.7210   -5.1770    0.6780 oh        1 MOL     -0.635282
     76 H29         2.6720   -3.1970   -0.8750 hn        1 MOL      0.211420
     77 H30         0.8210   -4.7060   -2.5540 h1        1 MOL      0.063763
     78 H31         0.3560   -6.0920   -0.4070 h1        1 MOL     -0.019184
     79 H32         1.1250   -5.6870    1.2240 ho        1 MOL      0.413486
     80 H33         3.2280   -6.1890   -1.2420 hc        1 MOL      0.100926
     81 H34         2.1190   -7.3940   -0.7480 hc        1 MOL      0.100926
     82 H35         1.9190   -6.6850   -2.3590 hc        1 MOL      0.100926
     83 N9         -1.3130   -3.8480   -1.1610 n         1 MOL     -0.580046
     84 C26        -2.4940   -3.0170   -1.0210 c3        1 MOL      0.023075
     85 C27        -3.2320   -3.2580    0.3150 c         1 MOL      0.562483
     86 O15        -3.6860   -4.3450    0.5760 o         1 MOL     -0.583632
     87 C28        -3.4430   -3.4110   -2.1930 c3        1 MOL      0.265174
     88 C29        -4.8080   -2.7080   -2.2230 c3        1 MOL      0.136666
     89 C30        -2.8040   -3.0890   -3.5970 c3        1 MOL     -0.298592
     90 C31        -5.9490   -3.0070   -3.2200 c3        1 MOL     -0.441652
     91 H36        -1.4730   -4.7280   -1.6320 hn        1 MOL      0.275650
     92 H37        -2.2600   -1.9600   -1.1590 h1        1 MOL      0.193912
     93 H38        -3.7040   -4.4480   -2.0410 hc        1 MOL     -0.058127
     94 H39        -4.7140   -1.6310   -2.1650 hc        1 MOL     -0.018636
     95 H40        -5.2580   -2.9930   -1.2680 hc        1 MOL     -0.018636
     96 H41        -3.3950   -3.4890   -4.4220 hc        1 MOL      0.056140
     97 H42        -2.8520   -2.0050   -3.6850 hc        1 MOL      0.056140
     98 H43        -1.7920   -3.4740   -3.6920 hc        1 MOL      0.056140
     99 H44        -5.7610   -2.5820   -4.2030 hc        1 MOL      0.099771
    100 H45        -6.0470   -4.1000   -3.2400 hc        1 MOL      0.099771
    101 H46        -6.9200   -2.7000   -2.8360 hc        1 MOL      0.099771
    102 N10        -3.4310   -2.2230    1.0870 n         1 MOL     -0.437373
    103 C32        -4.0900   -2.1220    2.3490 c3        1 MOL      0.122408
    104 C33        -5.4600   -1.4890    2.1840 c         1 MOL      0.252760
    105 O16        -6.3270   -1.8490    3.0040 o         1 MOL     -0.522124
    106 C34        -3.2920   -1.4550    3.4800 c3        1 MOL     -0.190979
    107 C35        -1.7740   -1.7820    3.3140 c         1 MOL      0.851568
    108 O17        -1.3130   -2.9390    3.4920 o         1 MOL     -0.753458
    109 O18        -0.9560   -0.8530    3.1690 o         1 MOL     -0.753458
    110 H47        -3.1330   -1.3690    0.6210 hn        1 MOL      0.209829
    111 H48        -4.2790   -3.1440    2.6730 h1        1 MOL      0.111767
    112 H49        -3.5770   -1.9280    4.4150 hc        1 MOL      0.047731
    113 H50        -3.3750   -0.3770    3.5470 hc        1 MOL      0.047731
    114 N11        -5.7910   -0.7170    1.1060 n         1 MOL     -0.100929
    115 C36        -7.0020   -0.0540    0.8800 c3        1 MOL      0.247246
    116 C37        -6.7990    1.3870    0.3270 c         1 MOL      0.169316
    117 O19        -7.2860    1.7020   -0.7470 o         1 MOL     -0.503460
    118 C38        -7.8190   -0.9430   -0.0530 c3        1 MOL     -0.266747
    119 C39        -9.2940   -1.0470    0.3840 ca        1 MOL      0.012391
    120 C40       -10.2100   -0.1220   -0.0800 ca        1 MOL     -0.070122
    121 C41        -9.6200   -1.8860    1.3890 ca        1 MOL     -0.070122
    122 C42       -11.5050   -0.1380    0.4730 ca        1 MOL     -0.176649
    123 C43       -10.8960   -1.9640    1.8970 ca        1 MOL     -0.176649
    124 C44       -11.8660   -0.9900    1.5170 ca        1 MOL     -0.097126
    125 H51        -5.0750   -0.5790    0.4080 hn        1 MOL      0.178454
    126 H52        -7.4950   -0.0880    1.8530 h1        1 MOL      0.040115
    127 H53        -7.3650   -1.9360    0.0340 hc        1 MOL      0.103513
    128 H54        -7.7440   -0.6720   -1.0990 hc        1 MOL      0.103513
    129 H55       -10.0900    0.4750   -0.9780 ha        1 MOL      0.110561
    130 H56        -8.8760   -2.4920    1.8810 ha        1 MOL      0.110561
    131 H57       -12.2560    0.5500    0.1130 ha        1 MOL      0.106688
    132 H58       -11.0720   -2.6620    2.6980 ha        1 MOL      0.106688
    133 H59       -12.8100   -0.8600    2.0210 ha        1 MOL      0.097193
    134 N12        -5.9790    2.2610    0.9420 n         1 MOL      0.086599
    135 C45        -5.6010    3.5910    0.5350 c3        1 MOL      0.044589
    136 C46        -4.9800    3.6970   -0.8760 c         1 MOL      0.174500
    137 O20        -5.0890    4.7510   -1.5020 o         1 MOL     -0.477194
    138 C47        -4.7240    4.2920    1.5810 c3        1 MOL     -0.148536
    139 C48        -5.2310    3.5020    2.8120 c3        1 MOL     -0.025022
    140 C49        -5.5510    2.0710    2.3500 c3        1 MOL     -0.089660
    141 H60        -6.5810    4.0590    0.4560 h1        1 MOL      0.059843
    142 H61        -3.6910    4.1270    1.2740 hc        1 MOL      0.084624
    143 H62        -4.9980    5.3510    1.6420 hc        1 MOL      0.084624
    144 H63        -4.4590    3.4550    3.5810 hc        1 MOL      0.021298
    145 H64        -6.1410    3.9770    3.1830 hc        1 MOL      0.021298
    146 H65        -4.6740    1.4220    2.3350 h1        1 MOL      0.063742
    147 H66        -6.3560    1.7420    3.0100 h1        1 MOL      0.063742
    148 N13        -4.5130    2.5880   -1.4240 n         1 MOL      0.116622
    149 C50        -3.9130    2.5760   -2.7480 c3        1 MOL     -0.337954
    150 C51        -5.0400    2.8190   -3.7390 c         1 MOL      0.531332
    151 O21        -4.9410    3.7610   -4.4910 o         1 MOL     -0.526927
    152 C52        -3.1380    1.2060   -3.0950 c3        1 MOL      0.150894
    153 C53        -1.9560    0.7770   -2.2110 c3        1 MOL     -0.312917
    154 C54        -2.3780    0.3630   -0.7580 c         1 MOL      0.724308
    155 O22        -1.5280   -0.0050    0.0530 o         1 MOL     -0.727366
    156 O23        -3.5570    0.2950   -0.4740 o         1 MOL     -0.727366
    157 H67        -4.3980    1.7850   -0.8280 hn        1 MOL      0.167465
    158 H68        -3.1410    3.3570   -2.7410 h1        1 MOL      0.146204
    159 H69        -2.6860    1.3030   -4.0860 hc        1 MOL     -0.024850
    160 H70        -3.7760    0.3300   -3.1070 hc        1 MOL     -0.024850
    161 H71        -1.2290    1.5880   -2.2820 hc        1 MOL      0.097748
    162 H72        -1.4090   -0.0800   -2.6150 hc        1 MOL      0.097748
    163 N14        -6.0810    2.0090   -3.5760 n         1 MOL     -0.215421
    164 C55        -7.2750    1.9420   -4.4090 c3        1 MOL     -0.406938
    165 H73        -7.0010    2.1130   -5.4500 h1        1 MOL      0.138366
    166 H74        -7.7330    0.9590   -4.3100 h1        1 MOL      0.138366
    167 H75        -7.9830    2.7070   -4.0910 h1        1 MOL      0.138366
    168 H76        -6.1220    1.4680   -2.7220 hn        1 MOL      0.273542
    169 Ca1         0.7120   -0.5170    1.3290 Ca        1 MOL      1.796206
    170 O24         0.1960    2.1210    1.9470 oh        1 MOL     -0.861572
    171 H77         0.8980    2.7440    1.7540 ho        1 MOL      0.407975
    172 H78        -0.4910    2.6470    2.3450 ho        1 MOL      0.407975
    173 O25         3.2170   -1.6110    0.2910 oh        1 MOL     -0.861572
    174 H79         3.5900   -2.3790    0.7210 ho        1 MOL      0.407975
    175 H80         3.8600   -0.9130    0.4330 ho        1 MOL      0.407975
    176 O26         1.1790   -2.8890    2.4590 oh        1 MOL     -0.861572
    177 H81         0.4190   -3.0140    3.0310 ho        1 MOL      0.407975
    178 H82         1.6310   -3.7320    2.4940 ho        1 MOL      0.407975
    179 O27         2.3160    1.3080   -0.0530 oh        1 MOL     -0.861572
    180 H83         2.1460    2.2470   -0.0990 ho        1 MOL      0.407975
    181 H84         3.2740    1.2500   -0.0260 ho        1 MOL      0.407975
@<TRIPOS>BOND
     1    1    2 1   
     2    1    4 1   
     3    1    5 1   
     4    1    6 1   
     5    2    3 2   
     6    2    7 1   
     7    7    8 1   
     8    7   15 1   
     9    8    9 1   
    10    8   11 1   
    11    8   16 1   
    12    9   10 2   
    13    9   19 1   
    14   11   12 1   
    15   11   17 1   
    16   11   18 1   
    17   12   13 1   
    18   12   14 1   
    19   19   20 1   
    20   19   24 1   
    21   20   21 1   
    22   20   23 1   
    23   20   25 1   
    24   21   22 2   
    25   21   29 1   
    26   23   26 1   
    27   23   27 1   
    28   23   28 1   
    29   29   30 1   
    30   29   37 1   
    31   30   31 1   
    32   30   33 1   
    33   30   38 1   
    34   31   32 2   
    35   31   41 1   
    36   33   34 1   
    37   33   39 1   
    38   33   40 1   
    39   34   35 1   
    40   34   36 1   
    41   41   42 1   
    42   41   45 1   
    43   42   43 1   
    44   42   46 1   
    45   42   47 1   
    46   43   44 2   
    47   43   48 1   
    48   48   49 1   
    49   48   56 1   
    50   49   50 1   
    51   49   52 1   
    52   49   57 1   
    53   50   51 2   
    54   50   62 1   
    55   52   53 1   
    56   52   58 1   
    57   52   59 1   
    58   53   54 1   
    59   53   55 2   
    60   54   60 1   
    61   54   61 1   
    62   62   63 1   
    63   62   66 1   
    64   63   64 1   
    65   63   67 1   
    66   63   68 1   
    67   64   65 2   
    68   64   69 1   
    69   69   70 1   
    70   69   76 1   
    71   70   71 1   
    72   70   73 1   
    73   70   77 1   
    74   71   72 2   
    75   71   83 1   
    76   73   74 1   
    77   73   75 1   
    78   73   78 1   
    79   74   80 1   
    80   74   81 1   
    81   74   82 1   
    82   75   79 1   
    83   83   84 1   
    84   83   91 1   
    85   84   85 1   
    86   84   87 1   
    87   84   92 1   
    88   85   86 2   
    89   85  102 1   
    90   87   88 1   
    91   87   89 1   
    92   87   93 1   
    93   88   90 1   
    94   88   94 1   
    95   88   95 1   
    96   89   96 1   
    97   89   97 1   
    98   89   98 1   
    99   90   99 1   
   100   90  100 1   
   101   90  101 1   
   102  102  103 1   
   103  102  110 1   
   104  103  104 1   
   105  103  106 1   
   106  103  111 1   
   107  104  105 2   
   108  104  114 1   
   109  106  107 1   
   110  106  112 1   
   111  106  113 1   
   112  107  108 1   
   113  107  109 1   
   114  114  115 1   
   115  114  125 1   
   116  115  116 1   
   117  115  118 1   
   118  115  126 1   
   119  116  117 2   
   120  116  134 1   
   121  118  119 1   
   122  118  127 1   
   123  118  128 1   
   124  119  120 ar  
   125  119  121 ar  
   126  120  122 ar  
   127  120  129 1   
   128  121  123 ar  
   129  121  130 1   
   130  122  124 ar  
   131  122  131 1   
   132  123  124 ar  
   133  123  132 1   
   134  124  133 1   
   135  134  135 1   
   136  134  140 1   
   137  135  136 1   
   138  135  138 1   
   139  135  141 1   
   140  136  137 2   
   141  136  148 1   
   142  138  139 1   
   143  138  142 1   
   144  138  143 1   
   145  139  140 1   
   146  139  144 1   
   147  139  145 1   
   148  140  146 1   
   149  140  147 1   
   150  148  149 1   
   151  148  157 1   
   152  149  150 1   
   153  149  152 1   
   154  149  158 1   
   155  150  151 2   
   156  150  163 1   
   157  152  153 1   
   158  152  159 1   
   159  152  160 1   
   160  153  154 1   
   161  153  161 1   
   162  153  162 1   
   163  154  155 1   
   164  154  156 1   
   165  163  164 1   
   166  163  168 1   
   167  164  165 1   
   168  164  166 1   
   169  164  167 1   
   170  170  171 1   
   171  170  172 1   
   172  173  174 1   
   173  173  175 1   
   174  176  177 1   
   175  176  178 1   
   176  179  180 1   
   177  179  181 1   
@<TRIPOS>SUBSTRUCTURE
     1 MOL         1 TEMP              0 ****  ****    0 ROOT
