@<TRIPOS>MOLECULE
MOL
  189   185     1     0     0
SMALL
resp


@<TRIPOS>ATOM
      1 C1         -5.2680   -4.3800   -3.3060 c3        1 MOL     -0.560529
      2 C2         -5.8820   -3.4930   -2.2430 c         1 MOL      0.888040
      3 O1         -5.2830   -3.3050   -1.1680 o         1 MOL     -0.693259
      4 H1         -5.9630   -4.4820   -4.1390 hc        1 MOL      0.143021
      5 H2         -4.3390   -3.9330   -3.6610 hc        1 MOL      0.143021
      6 H3         -5.0620   -5.3640   -2.8840 hc        1 MOL      0.143021
      7 N1         -7.0800   -2.9380   -2.3650 n         1 MOL     -0.680039
      8 C3         -7.7290   -1.9040   -1.6230 c3        1 MOL      0.340798
      9 C4         -6.7240   -0.7740   -1.4320 c         1 MOL      0.404595
     10 O2         -6.1380   -0.6590   -0.3530 o         1 MOL     -0.450868
     11 C5         -8.5390   -2.3250   -0.3900 c3        1 MOL     -0.200266
     12 C6         -7.8470   -3.2930    0.5520 c         1 MOL      0.787280
     13 O3         -6.8500   -2.8930    1.2000 o         1 MOL     -0.741086
     14 O4         -8.2970   -4.4440    0.6660 o         1 MOL     -0.741086
     15 H4         -7.5490   -3.1960   -3.2240 hn        1 MOL      0.297376
     16 H5         -8.4400   -1.4820   -2.3280 h1        1 MOL     -0.001029
     17 H6         -9.5040   -2.6580   -0.7640 hc        1 MOL      0.025149
     18 H7         -8.7600   -1.4160    0.1790 hc        1 MOL      0.025149
     19 N2         -6.2930   -0.1760   -2.5730 n         1 MOL     -0.620863
     20 C7         -5.3940    0.9930   -2.7240 c3        1 MOL      0.439341
     21 C8         -5.7560    2.2570   -1.9460 c         1 MOL      0.227629
     22 O5         -5.9720    3.2820   -2.5700 o         1 MOL     -0.547174
     23 C9         -3.9070    0.6480   -2.6050 c3        1 MOL      0.067086
     24 C10        -2.9120    1.7470   -3.0710 c3        1 MOL      0.092745
     25 C11        -3.6400   -0.7350   -3.1060 c3        1 MOL     -0.060517
     26 C12        -2.8800    2.2200   -4.4950 c3        1 MOL     -0.351487
     27 H8         -6.6990   -0.5780   -3.4060 hn        1 MOL      0.287081
     28 H9         -5.5400    1.4090   -3.7210 h1        1 MOL     -0.042867
     29 H10        -3.8290    0.5710   -1.5220 hc        1 MOL     -0.137003
     30 H11        -1.9660    1.2810   -2.8130 hc        1 MOL      0.038102
     31 H12        -2.9490    2.5940   -2.3730 hc        1 MOL      0.038102
     32 H13        -2.5640   -0.9160   -3.1240 hc        1 MOL     -0.009827
     33 H14        -4.1630   -1.4960   -2.5250 hc        1 MOL     -0.009827
     34 H15        -3.9680   -0.8500   -4.1410 hc        1 MOL     -0.009827
     35 H16        -2.0150    2.8700   -4.6060 hc        1 MOL      0.075317
     36 H17        -2.7900    1.3700   -5.1670 hc        1 MOL      0.075317
     37 H18        -3.7880    2.8000   -4.6830 hc        1 MOL      0.075317
     38 N3         -6.0740    2.2570   -0.6720 n         1 MOL      0.101323
     39 C13        -6.7300    3.3510    0.0480 c3        1 MOL     -0.045179
     40 C14        -5.7650    4.5420    0.3930 c         1 MOL      0.518965
     41 O6         -6.2710    5.6880    0.3750 o         1 MOL     -0.584316
     42 C15        -7.3540    2.9130    1.4070 c3        1 MOL     -0.336690
     43 C16        -8.4640    1.9150    1.3200 c         1 MOL      0.774876
     44 O7         -9.5230    2.1520    0.7530 o         1 MOL     -0.709384
     45 O8         -8.2250    0.7610    1.7780 o         1 MOL     -0.709384
     46 H19        -5.9310    1.4490   -0.0850 hn        1 MOL      0.074305
     47 H20        -7.5280    3.7720   -0.5730 h1        1 MOL      0.097305
     48 H21        -7.5530    3.8460    1.9310 hc        1 MOL      0.094874
     49 H22        -6.5110    2.5140    1.9760 hc        1 MOL      0.094874
     50 N4         -4.4360    4.5230    0.5390 n         1 MOL     -0.521163
     51 C17        -3.6460    3.3670    1.0480 c3        1 MOL      0.355047
     52 C18        -2.6710    3.8220    2.1290 c         1 MOL      0.518557
     53 O9         -2.5730    5.0630    2.3180 o         1 MOL     -0.602562
     54 H23        -4.0000    5.4240    0.6060 hn        1 MOL      0.303084
     55 H24        -3.1360    2.9140    0.2090 h1        1 MOL     -0.066701
     56 H25        -4.3400    2.6450    1.4680 h1        1 MOL     -0.066701
     57 N5         -1.9690    3.0220    2.8890 n         1 MOL     -0.332729
     58 C19        -2.0110    1.5620    2.8630 c3        1 MOL      0.019024
     59 C20        -2.1610    0.9790    1.4410 c         1 MOL      0.476808
     60 O10        -3.2030    0.3470    1.0670 o         1 MOL     -0.579302
     61 C21        -3.0620    0.9500    3.7850 c3        1 MOL     -0.307012
     62 C22        -3.1180    1.5300    5.2400 c         1 MOL      0.697204
     63 O11        -4.2340    1.4920    5.8280 o         1 MOL     -0.702154
     64 O12        -2.0490    1.9750    5.7850 o         1 MOL     -0.702154
     65 H26        -1.3760    3.4890    3.5560 hn        1 MOL      0.262908
     66 H27        -1.0380    1.2480    3.2270 h1        1 MOL      0.050955
     67 H28        -2.9560   -0.1320    3.7490 hc        1 MOL      0.084307
     68 H29        -4.0610    1.0580    3.3720 hc        1 MOL      0.084307
     69 N6         -1.1650    1.0840    0.5570 n         1 MOL     -0.307373
     70 C23         0.2050    1.5900    0.7710 c3        1 MOL     -0.105466
     71 C24         0.5400    2.9410    0.1440 c         1 MOL      0.381014
     72 O13        -0.2420    3.5910   -0.5070 o         1 MOL     -0.449674
     73 H30        -1.2450    0.5720   -0.3090 hn        1 MOL      0.271268
     74 H31         0.8710    0.7950    0.4420 h1        1 MOL      0.113387
     75 H32         0.4390    1.6660    1.8420 h1        1 MOL      0.113387
     76 N7          1.8010    3.3650    0.3770 n         1 MOL     -0.385488
     77 C25         2.5210    4.4470   -0.3630 c3        1 MOL     -0.008528
     78 C26         2.8660    4.1090   -1.8290 c         1 MOL      0.344731
     79 O14         3.0090    5.0200   -2.6770 o         1 MOL     -0.530644
     80 C27         3.8040    4.8050    0.3320 c3        1 MOL      0.093167
     81 C28         4.2870    6.2540    0.0080 c3        1 MOL     -0.220856
     82 C29         3.4600    7.3390    0.7100 c         1 MOL      0.680902
     83 N8          2.3400    7.7630    0.0990 n         1 MOL     -0.814417
     84 O15         3.8260    7.8710    1.7460 o         1 MOL     -0.570024
     85 H33         2.3570    2.8310    1.0250 hn        1 MOL      0.238749
     86 H34         1.8520    5.3060   -0.3930 h1        1 MOL      0.111671
     87 H35         4.5690    4.0690    0.0990 hc        1 MOL      0.028412
     88 H36         3.6920    4.8510    1.4150 hc        1 MOL      0.028412
     89 H37         4.1910    6.4860   -1.0550 hc        1 MOL      0.050740
     90 H38         5.3270    6.3820    0.3220 hc        1 MOL      0.050740
     91 H39         1.8590    7.2370   -0.6180 hn        1 MOL      0.370927
     92 H40         1.8200    8.4830    0.5780 hn        1 MOL      0.370927
     93 N9          2.9500    2.8520   -2.1850 n         1 MOL     -0.064354
     94 C30         3.3200    2.2840   -3.5130 c3        1 MOL     -0.133258
     95 C31         4.7180    1.6720   -3.4750 c         1 MOL      0.401392
     96 O16         5.2340    1.4230   -4.5720 o         1 MOL     -0.520224
     97 C32         2.1800    1.3380   -3.9560 c3        1 MOL      0.212811
     98 C33         0.8630    2.1230   -4.2100 c3        1 MOL     -0.165704
     99 C34         1.9140    0.2550   -2.9990 c3        1 MOL     -0.165704
    100 H41         2.5710    2.2340   -1.4870 hn        1 MOL      0.152014
    101 H42         3.3670    3.0510   -4.2900 h1        1 MOL      0.123271
    102 H43         2.4700    0.8970   -4.9110 hc        1 MOL     -0.005436
    103 H44         0.4640    2.5070   -3.2710 hc        1 MOL      0.038397
    104 H45         1.0080    2.9390   -4.9310 hc        1 MOL      0.038397
    105 H46         0.2060    1.3450   -4.6050 hc        1 MOL      0.038397
    106 H47         2.8120   -0.2810   -2.6980 hc        1 MOL      0.038397
    107 H48         1.4320    0.6060   -2.0760 hc        1 MOL      0.038397
    108 H49         1.2410   -0.4740   -3.4490 hc        1 MOL      0.038397
    109 N10         5.3360    1.4620   -2.2930 n         1 MOL     -0.277448
    110 C35         6.6700    0.9770   -2.1080 c3        1 MOL      0.340572
    111 C36         6.7860   -0.4720   -1.6340 c         1 MOL      0.342419
    112 O17         7.7470   -1.1570   -1.9630 o         1 MOL     -0.484060
    113 C37         7.4990    1.9710   -1.2380 c3        1 MOL     -0.335033
    114 C38         6.9260    2.3170    0.1080 c         1 MOL      0.398238
    115 N11         7.3600    3.3810    0.6890 n         1 MOL     -0.564048
    116 O18         5.8820    1.8040    0.4560 o         1 MOL     -0.471277
    117 H50         4.8630    1.5690   -1.4100 hn        1 MOL      0.186904
    118 H51         7.1700    0.9650   -3.0820 h1        1 MOL      0.007898
    119 H52         7.6430    2.9080   -1.7780 hc        1 MOL      0.108866
    120 H53         8.4140    1.4080   -1.0920 hc        1 MOL      0.108866
    121 H54         8.2520    3.7640    0.3970 hn        1 MOL      0.312644
    122 H55         7.0970    3.5730    1.6410 hn        1 MOL      0.312644
    123 N12         5.8120   -0.8470   -0.7840 n         1 MOL     -0.413885
    124 C39         6.0400   -2.1070   -0.0200 c3        1 MOL      0.272567
    125 C40         4.7060   -2.7350    0.4460 c         1 MOL      0.409962
    126 O19         3.6660   -2.0640    0.6370 o         1 MOL     -0.463667
    127 C41         6.9150   -1.8930    1.2670 c3        1 MOL     -0.124326
    128 C42         8.0900   -0.9870    1.2130 ca        1 MOL     -0.022590
    129 C43         9.2610   -1.4290    0.5470 ca        1 MOL     -0.112424
    130 C44         8.1640    0.2220    1.9590 ca        1 MOL     -0.112424
    131 C45        10.3910   -0.6120    0.4970 ca        1 MOL     -0.273196
    132 C46         9.3040    0.9640    1.9570 ca        1 MOL     -0.273196
    133 C47        10.4310    0.6440    1.1230 ca        1 MOL      0.327099
    134 O20        11.5340    1.4040    1.1320 oh        1 MOL     -0.455692
    135 H56         5.0400   -0.2110   -0.6720 hn        1 MOL      0.217636
    136 H57         6.5730   -2.8090   -0.6510 h1        1 MOL     -0.004905
    137 H58         7.3560   -2.8570    1.5260 hc        1 MOL      0.091114
    138 H59         6.2750   -1.4720    2.0410 hc        1 MOL      0.091114
    139 H60         9.2950   -2.4040    0.0930 ha        1 MOL      0.149207
    140 H61         7.3380    0.5620    2.5810 ha        1 MOL      0.149207
    141 H62        11.2450   -0.9590   -0.0670 ha        1 MOL      0.136793
    142 H63         9.3560    1.8580    2.5650 ha        1 MOL      0.136793
    143 H64        11.2620    2.1290    1.7000 ho        1 MOL      0.323159
    144 N13         4.7250   -4.0260    0.6290 n         1 MOL     -0.542691
    145 C48         3.7130   -4.9590    1.1560 c3        1 MOL      0.008511
    146 C49         2.5040   -5.2210    0.2280 c         1 MOL      0.521703
    147 O21         1.9740   -6.3240    0.2250 o         1 MOL     -0.570446
    148 C50         3.4270   -4.5550    2.5880 c3        1 MOL      0.084560
    149 C51         4.6810   -4.5650    3.4740 c3        1 MOL     -0.171620
    150 C52         4.3780   -4.6570    4.9610 c         1 MOL      0.666839
    151 O22         4.1950   -5.8090    5.3900 o         1 MOL     -0.721295
    152 O23         4.2560   -3.6300    5.6840 o         1 MOL     -0.721295
    153 H65         5.6000   -4.3980    0.3050 hn        1 MOL      0.311888
    154 H66         4.1830   -5.9480    1.2450 h1        1 MOL      0.078275
    155 H67         2.6550   -5.2550    2.9260 hc        1 MOL      0.044537
    156 H68         3.0140   -3.5470    2.6080 hc        1 MOL      0.044537
    157 H69         5.1250   -3.5810    3.3440 hc        1 MOL     -0.009059
    158 H70         5.3680   -5.3780    3.2210 hc        1 MOL     -0.009059
    159 N14         2.0690   -4.3290   -0.6060 n         1 MOL     -0.325693
    160 C53         0.8800   -4.5120   -1.4820 c3        1 MOL     -0.110897
    161 C54         1.0950   -5.5660   -2.5680 c         1 MOL      0.375421
    162 O24         0.1100   -5.8940   -3.3230 o         1 MOL     -0.540104
    163 C55         0.3970   -3.2030   -2.2300 c3        1 MOL     -0.120757
    164 C56        -0.0480   -2.1220   -1.2260 c3        1 MOL      0.424416
    165 C57        -1.0150   -2.6630   -0.1290 c         1 MOL      0.487418
    166 O25        -0.5780   -3.3510    0.7990 o         1 MOL     -0.655386
    167 O26        -2.1970   -2.2940   -0.0500 o         1 MOL     -0.655386
    168 H71         2.5110   -3.4300   -0.5600 hn        1 MOL      0.198207
    169 H72         0.0670   -4.9600   -0.9000 h1        1 MOL      0.214185
    170 H73        -0.4350   -3.4670   -2.8850 hc        1 MOL      0.049481
    171 H74         1.2360   -2.8470   -2.8190 hc        1 MOL      0.049481
    172 H75        -0.5710   -1.3780   -1.8190 hc        1 MOL     -0.129168
    173 H76         0.8000   -1.6980   -0.7000 hc        1 MOL     -0.129168
    174 N15         2.3250   -6.0280   -2.8010 n         1 MOL     -0.156887
    175 C58         2.6970   -6.8120   -3.9940 c3        1 MOL     -0.136766
    176 H77         1.8680   -6.8120   -4.7020 h1        1 MOL      0.070497
    177 H78         3.5750   -6.3670   -4.4630 h1        1 MOL      0.070497
    178 H79         2.9240   -7.8370   -3.7000 h1        1 MOL      0.070497
    179 H80         3.0330   -5.7340   -2.1470 hn        1 MOL      0.187986
    180 Ca1        -4.3810   -1.9710    1.2700 Ca        1 MOL      1.812907
    181 O27        -6.0330   -0.4700    2.6700 oh        1 MOL     -0.910777
    182 H81        -6.2360   -0.3340    3.5960 ho        1 MOL      0.435042
    183 H82        -6.7680   -0.0640    2.1960 ho        1 MOL      0.435042
    184 O28        -2.1990   -2.2290    2.7110 oh        1 MOL     -0.910777
    185 H83        -1.5890   -2.0290    3.4160 ho        1 MOL      0.435042
    186 H84        -1.6640   -2.6540    2.0450 ho        1 MOL      0.435042
    187 O29        -4.2610   -4.2820    2.2940 oh        1 MOL     -0.910777
    188 H85        -4.8120   -5.0240    2.0240 ho        1 MOL      0.435042
    189 H86        -3.4100   -4.6840    2.4900 ho        1 MOL      0.435042
@<TRIPOS>BOND
     1    1    2 1   
     2    1    4 1   
     3    1    5 1   
     4    1    6 1   
     5    2    3 2   
     6    2    7 1   
     7    7    8 1   
     8    7   15 1   
     9    8    9 1   
    10    8   11 1   
    11    8   16 1   
    12    9   10 2   
    13    9   19 1   
    14   11   12 1   
    15   11   17 1   
    16   11   18 1   
    17   12   13 1   
    18   12   14 1   
    19   19   20 1   
    20   19   27 1   
    21   20   21 1   
    22   20   23 1   
    23   20   28 1   
    24   21   22 2   
    25   21   38 1   
    26   23   24 1   
    27   23   25 1   
    28   23   29 1   
    29   24   26 1   
    30   24   30 1   
    31   24   31 1   
    32   25   32 1   
    33   25   33 1   
    34   25   34 1   
    35   26   35 1   
    36   26   36 1   
    37   26   37 1   
    38   38   39 1   
    39   38   46 1   
    40   39   40 1   
    41   39   42 1   
    42   39   47 1   
    43   40   41 2   
    44   40   50 1   
    45   42   43 1   
    46   42   48 1   
    47   42   49 1   
    48   43   44 1   
    49   43   45 1   
    50   50   51 1   
    51   50   54 1   
    52   51   52 1   
    53   51   55 1   
    54   51   56 1   
    55   52   53 2   
    56   52   57 1   
    57   57   58 1   
    58   57   65 1   
    59   58   59 1   
    60   58   61 1   
    61   58   66 1   
    62   59   60 2   
    63   59   69 1   
    64   61   62 1   
    65   61   67 1   
    66   61   68 1   
    67   62   63 1   
    68   62   64 1   
    69   69   70 1   
    70   69   73 1   
    71   70   71 1   
    72   70   74 1   
    73   70   75 1   
    74   71   72 2   
    75   71   76 1   
    76   76   77 1   
    77   76   85 1   
    78   77   78 1   
    79   77   80 1   
    80   77   86 1   
    81   78   79 2   
    82   78   93 1   
    83   80   81 1   
    84   80   87 1   
    85   80   88 1   
    86   81   82 1   
    87   81   89 1   
    88   81   90 1   
    89   82   83 1   
    90   82   84 2   
    91   83   91 1   
    92   83   92 1   
    93   93   94 1   
    94   93  100 1   
    95   94   95 1   
    96   94   97 1   
    97   94  101 1   
    98   95   96 2   
    99   95  109 1   
   100   97   98 1   
   101   97   99 1   
   102   97  102 1   
   103   98  103 1   
   104   98  104 1   
   105   98  105 1   
   106   99  106 1   
   107   99  107 1   
   108   99  108 1   
   109  109  110 1   
   110  109  117 1   
   111  110  111 1   
   112  110  113 1   
   113  110  118 1   
   114  111  112 2   
   115  111  123 1   
   116  113  114 1   
   117  113  119 1   
   118  113  120 1   
   119  114  115 1   
   120  114  116 2   
   121  115  121 1   
   122  115  122 1   
   123  123  124 1   
   124  123  135 1   
   125  124  125 1   
   126  124  127 1   
   127  124  136 1   
   128  125  126 2   
   129  125  144 1   
   130  127  128 1   
   131  127  137 1   
   132  127  138 1   
   133  128  129 ar  
   134  128  130 ar  
   135  129  131 ar  
   136  129  139 1   
   137  130  132 ar  
   138  130  140 1   
   139  131  133 ar  
   140  131  141 1   
   141  132  133 ar  
   142  132  142 1   
   143  133  134 1   
   144  134  143 1   
   145  144  145 1   
   146  144  153 1   
   147  145  146 1   
   148  145  148 1   
   149  145  154 1   
   150  146  147 2   
   151  146  159 1   
   152  148  149 1   
   153  148  155 1   
   154  148  156 1   
   155  149  150 1   
   156  149  157 1   
   157  149  158 1   
   158  150  151 1   
   159  150  152 1   
   160  159  160 1   
   161  159  168 1   
   162  160  161 1   
   163  160  163 1   
   164  160  169 1   
   165  161  162 2   
   166  161  174 1   
   167  163  164 1   
   168  163  170 1   
   169  163  171 1   
   170  164  165 1   
   171  164  172 1   
   172  164  173 1   
   173  165  166 1   
   174  165  167 1   
   175  174  175 1   
   176  174  179 1   
   177  175  176 1   
   178  175  177 1   
   179  175  178 1   
   180  181  182 1   
   181  181  183 1   
   182  184  185 1   
   183  184  186 1   
   184  187  188 1   
   185  187  189 1   
@<TRIPOS>SUBSTRUCTURE
     1 MOL         1 TEMP              0 ****  ****    0 ROOT
