@<TRIPOS>MOLECULE
MOL
  189   185     1     0     0
SMALL
resp


@<TRIPOS>ATOM
      1 C1          4.1220    5.3300   -2.3980 c3        1 MOL     -0.465181
      2 C2          4.8020    4.0850   -1.7950 c         1 MOL      0.646134
      3 O1          4.3020    3.4270   -0.8930 o         1 MOL     -0.497458
      4 H1          3.5210    5.8210   -1.6330 hc        1 MOL      0.126459
      5 H2          4.8840    6.0200   -2.7600 hc        1 MOL      0.126459
      6 H3          3.4800    5.0300   -3.2270 hc        1 MOL      0.126459
      7 N1          5.9360    3.6570   -2.3180 n         1 MOL     -0.558198
      8 C3          6.6200    2.3590   -1.9830 c3        1 MOL      0.313627
      9 C4          5.7200    1.1230   -1.8850 c         1 MOL      0.381253
     10 O2          5.2890    0.7110   -0.8120 o         1 MOL     -0.689829
     11 C5          7.7200    2.5030   -0.8470 c3        1 MOL     -0.296387
     12 C6          7.3510    3.3090    0.4320 c         1 MOL      0.732923
     13 O3          6.4500    2.8890    1.2130 o         1 MOL     -0.697523
     14 O4          7.9250    4.3650    0.7080 o         1 MOL     -0.697523
     15 H4          6.4280    4.2540   -2.9740 hn        1 MOL      0.293625
     16 H5          7.2260    2.2490   -2.8810 h1        1 MOL      0.005025
     17 H6          8.6450    2.8700   -1.2830 hc        1 MOL      0.056189
     18 H7          7.9280    1.4940   -0.4820 hc        1 MOL      0.056189
     19 N2          5.4450    0.5440   -3.0870 n         1 MOL     -0.652726
     20 C7          4.5830   -0.6720   -3.3410 c3        1 MOL      0.278803
     21 C8          5.0650   -2.0210   -2.9150 c         1 MOL      0.373854
     22 O5          4.9450   -2.9580   -3.6700 o         1 MOL     -0.523351
     23 C9          3.0900   -0.2900   -2.9720 c3        1 MOL      0.067066
     24 C10         2.0400   -1.4270   -3.2640 c3        1 MOL     -0.074404
     25 C11         2.6810    1.0560   -3.5840 c3        1 MOL     -0.331071
     26 C12         1.8940   -1.8720   -4.6890 c3        1 MOL     -0.109886
     27 H8          5.8470    1.0280   -3.8730 hn        1 MOL      0.326008
     28 H9          4.4770   -0.7900   -4.4100 h1        1 MOL      0.021920
     29 H10         3.0610   -0.0800   -1.8960 hc        1 MOL      0.006859
     30 H11         1.0790   -1.2200   -2.8060 hc        1 MOL      0.074187
     31 H12         2.4160   -2.2960   -2.7160 hc        1 MOL      0.074187
     32 H13         3.2930    1.3410   -4.4490 hc        1 MOL      0.086481
     33 H14         1.6310    1.1230   -3.8670 hc        1 MOL      0.086481
     34 H15         2.9070    1.8810   -2.9050 hc        1 MOL      0.086481
     35 H16         1.8330   -0.9810   -5.3160 hc        1 MOL      0.014515
     36 H17         2.8590   -2.2900   -4.9940 hc        1 MOL      0.014515
     37 H18         1.1320   -2.6550   -4.7360 hc        1 MOL      0.014515
     38 N3          5.6970   -2.0590   -1.7430 n         1 MOL     -0.335260
     39 C13         6.4960   -3.1930   -1.2510 c3        1 MOL      0.053993
     40 C14         5.6800   -4.5350   -1.0510 c         1 MOL      0.700287
     41 O6          6.1420   -5.5610   -1.5500 o         1 MOL     -0.592441
     42 C15         7.2370   -2.7950    0.0400 c3        1 MOL     -0.477230
     43 C16         8.4040   -3.7240    0.3340 c         1 MOL      0.803235
     44 O7          9.4580   -3.4870   -0.3280 o         1 MOL     -0.700363
     45 O8          8.3560   -4.6470    1.1690 o         1 MOL     -0.700363
     46 H19         5.8870   -1.2110   -1.2290 hn        1 MOL      0.469147
     47 H20         7.2450   -3.4490   -2.0080 h1        1 MOL      0.044294
     48 H21         6.4820   -2.8290    0.8290 hc        1 MOL      0.123096
     49 H22         7.4510   -1.7270    0.0010 hc        1 MOL      0.123096
     50 N4          4.4560   -4.6240   -0.4950 n         1 MOL     -0.672727
     51 C17         3.8450   -3.7510    0.4870 c3        1 MOL      0.535261
     52 C18         4.1910   -4.0420    1.9540 c         1 MOL      0.260580
     53 O9          5.1540   -4.7780    2.2620 o         1 MOL     -0.449696
     54 H23         4.0290   -5.5350   -0.5880 hn        1 MOL      0.314886
     55 H24         2.7820   -4.0000    0.4060 h1        1 MOL     -0.104085
     56 H25         4.1480   -2.7500    0.1750 h1        1 MOL     -0.104085
     57 N5          3.5580   -3.3820    2.9790 n         1 MOL     -0.366594
     58 C19         2.2790   -2.6780    3.0560 c3        1 MOL      0.217005
     59 C20         2.2820   -1.5130    2.0170 c         1 MOL      0.247512
     60 O10         3.2910   -0.8750    1.7600 o         1 MOL     -0.481108
     61 C21         2.0000   -2.0790    4.3850 c3        1 MOL     -0.209139
     62 C22         3.2320   -1.3360    4.9870 c         1 MOL      0.660979
     63 O11         3.2360   -0.0790    5.1060 o         1 MOL     -0.665398
     64 O12         4.2460   -1.9990    5.3600 o         1 MOL     -0.665398
     65 H26         4.1070   -3.6350    3.7860 hn        1 MOL      0.259401
     66 H27         1.4960   -3.4100    2.8770 h1        1 MOL      0.034019
     67 H28         1.7220   -2.9280    5.0040 hc        1 MOL      0.038318
     68 H29         1.1450   -1.4020    4.4690 hc        1 MOL      0.038318
     69 N6          1.1460   -1.1530    1.4300 n         1 MOL     -0.306082
     70 C23        -0.1160   -1.6860    1.6180 c3        1 MOL      0.029164
     71 C24        -0.3580   -2.9480    0.8040 c         1 MOL      0.358656
     72 O13         0.4920   -3.7700    0.5160 o         1 MOL     -0.447315
     73 H30         1.1810   -0.2690    0.9270 hn        1 MOL      0.267853
     74 H31        -0.8510   -1.0120    1.1860 h1        1 MOL      0.050527
     75 H32        -0.4060   -1.8200    2.6700 h1        1 MOL      0.050527
     76 N7         -1.6270   -3.1870    0.4640 n         1 MOL     -0.263528
     77 C25        -2.1490   -4.3210   -0.3030 c3        1 MOL     -0.068526
     78 C26        -2.9620   -3.9840   -1.5930 c         1 MOL      0.659913
     79 O14        -3.4060   -4.9310   -2.1880 o         1 MOL     -0.549416
     80 C27        -2.9820   -5.2750    0.6300 c3        1 MOL      0.199151
     81 C28        -4.3900   -4.6930    1.0560 c3        1 MOL     -0.078285
     82 C29        -5.2120   -5.7410    1.8400 c         1 MOL      0.598982
     83 N8         -5.0140   -5.7280    3.1880 n         1 MOL     -0.838407
     84 O15        -5.9770   -6.5080    1.3720 o         1 MOL     -0.509406
     85 H33        -2.3190   -2.5660    0.8600 hn        1 MOL      0.202536
     86 H34        -1.3040   -4.8610   -0.7300 h1        1 MOL      0.104781
     87 H35        -2.4440   -5.4570    1.5620 hc        1 MOL     -0.027079
     88 H36        -3.1200   -6.2230    0.1150 hc        1 MOL     -0.027079
     89 H37        -4.8630   -4.4910    0.0960 hc        1 MOL     -0.031224
     90 H38        -4.3090   -3.7520    1.6140 hc        1 MOL     -0.031224
     91 H39        -4.4780   -5.0360    3.6870 hn        1 MOL      0.371218
     92 H40        -5.5130   -6.4330    3.7090 hn        1 MOL      0.371218
     93 N9         -3.0240   -2.7480   -2.0670 n         1 MOL     -0.420047
     94 C30        -3.5570   -2.4230   -3.4650 c3        1 MOL     -0.288774
     95 C31        -4.8430   -1.5500   -3.4170 c         1 MOL      0.640997
     96 O16        -5.5030   -1.3730   -4.4340 o         1 MOL     -0.538577
     97 C32        -2.5130   -1.6360   -4.2700 c3        1 MOL      0.205564
     98 C33        -1.5610   -2.7020   -4.8920 c3        1 MOL     -0.209452
     99 C34        -1.7470   -0.4340   -3.6510 c3        1 MOL     -0.209452
    100 H41        -2.6370   -1.9460   -1.5960 hn        1 MOL      0.192177
    101 H42        -3.8570   -3.3480   -3.9520 h1        1 MOL      0.192696
    102 H43        -3.0870   -1.1900   -5.0760 hc        1 MOL     -0.002539
    103 H44        -0.7740   -2.1370   -5.3850 hc        1 MOL      0.057677
    104 H45        -1.0440   -3.2590   -4.1080 hc        1 MOL      0.057677
    105 H46        -2.1080   -3.3810   -5.5460 hc        1 MOL      0.057677
    106 H47        -0.9500   -0.7180   -2.9710 hc        1 MOL      0.057677
    107 H48        -1.3170    0.1970   -4.4320 hc        1 MOL      0.057677
    108 H49        -2.4380    0.1610   -3.0420 hc        1 MOL      0.057677
    109 N10        -5.3270   -1.2410   -2.1910 n         1 MOL     -0.367214
    110 C35        -6.5490   -0.4140   -1.8820 c3        1 MOL      0.055027
    111 C36        -6.2960    1.0290   -1.2900 c         1 MOL      0.508493
    112 O17        -6.6590    2.0430   -1.7930 o         1 MOL     -0.512810
    113 C37        -7.4910   -1.2170   -0.9120 c3        1 MOL     -0.256610
    114 C38        -7.8620   -2.6360   -1.3240 c         1 MOL      0.511444
    115 N11        -7.4470   -3.6240   -0.5420 n         1 MOL     -0.563681
    116 O18        -8.3940   -3.0130   -2.3780 o         1 MOL     -0.512450
    117 H50        -4.7640   -1.5570   -1.4220 hn        1 MOL      0.236685
    118 H51        -7.0560   -0.2030   -2.8230 h1        1 MOL      0.069335
    119 H52        -8.4440   -0.6770   -0.8460 hc        1 MOL      0.115063
    120 H53        -6.9550   -1.2020    0.0270 hc        1 MOL      0.115063
    121 H54        -6.9960   -3.4070    0.3320 hn        1 MOL      0.295590
    122 H55        -7.9740   -4.4870   -0.5940 hn        1 MOL      0.295590
    123 N12        -5.6630    1.1390   -0.1270 n         1 MOL     -0.478679
    124 C39        -5.6040    2.2700    0.8010 c3        1 MOL      0.420744
    125 C40        -4.1490    2.7860    0.9450 c         1 MOL      0.325559
    126 O19        -3.1440    2.0990    0.6520 o         1 MOL     -0.485795
    127 C41        -6.3280    2.0020    2.1740 c3        1 MOL     -0.032997
    128 C42        -7.7470    1.4170    1.9920 ca        1 MOL     -0.046030
    129 C43        -8.7860    2.1930    1.4480 ca        1 MOL     -0.164030
    130 C44        -7.9600    0.0490    2.1870 ca        1 MOL     -0.164030
    131 C45       -10.0450    1.6100    1.1310 ca        1 MOL     -0.224964
    132 C46        -9.1610   -0.5500    1.8020 ca        1 MOL     -0.224964
    133 C47       -10.2690    0.2560    1.3490 ca        1 MOL      0.344015
    134 O20       -11.4760   -0.3140    1.2080 oh        1 MOL     -0.555933
    135 H56        -5.1590    0.3480    0.2540 hn        1 MOL      0.231737
    136 H57        -6.1460    3.1090    0.3520 h1        1 MOL     -0.038162
    137 H58        -6.4110    2.9460    2.7290 hc        1 MOL      0.026906
    138 H59        -5.7770    1.3340    2.8390 hc        1 MOL      0.026906
    139 H60        -8.6340    3.2250    1.1880 ha        1 MOL      0.118452
    140 H61        -7.1290   -0.4830    2.6290 ha        1 MOL      0.118452
    141 H62       -10.8750    2.2210    0.7880 ha        1 MOL      0.101106
    142 H63        -9.2800   -1.6250    1.8350 ha        1 MOL      0.101106
    143 H64       -12.2260    0.1060    0.7830 ho        1 MOL      0.409869
    144 N13        -4.0530    4.0170    1.5160 n         1 MOL     -0.477846
    145 C48        -2.8970    4.7660    1.9120 c3        1 MOL      0.016007
    146 C49        -1.8450    5.1880    0.8440 c         1 MOL      0.389971
    147 O21        -1.1280    6.1410    1.0570 o         1 MOL     -0.464889
    148 C50        -2.2200    4.2240    3.1760 c3        1 MOL     -0.002172
    149 C51        -1.3870    2.9080    3.1190 c3        1 MOL     -0.089804
    150 C52        -0.8600    2.3850    4.4650 c         1 MOL      0.630376
    151 O22         0.2320    2.8500    4.9090 o         1 MOL     -0.698506
    152 O23        -1.5630    1.6550    5.1980 o         1 MOL     -0.698506
    153 H65        -4.9330    4.4530    1.7120 hn        1 MOL      0.300486
    154 H66        -3.2940    5.7320    2.2340 h1        1 MOL      0.052940
    155 H67        -3.0490    4.0320    3.8540 hc        1 MOL      0.024940
    156 H68        -1.5600    5.0330    3.4700 hc        1 MOL      0.024940
    157 H69        -0.5030    3.1550    2.5430 hc        1 MOL      0.045696
    158 H70        -1.8330    2.0780    2.5860 hc        1 MOL      0.045696
    159 N14        -1.7120    4.4550   -0.2790 n         1 MOL     -0.380760
    160 C53        -0.7280    4.7010   -1.2900 c3        1 MOL     -0.059404
    161 C54        -1.1370    5.7030   -2.3660 c         1 MOL      0.518606
    162 O24        -0.3780    6.5220   -2.9210 o         1 MOL     -0.568580
    163 C55        -0.3020    3.3530   -1.9280 c3        1 MOL      0.067060
    164 C56        -0.1390    2.1590   -1.0070 c3        1 MOL      0.920522
    165 C57         1.1630    2.2060   -0.1580 c         1 MOL      0.290729
    166 O25         1.5940    3.2400    0.4500 o         1 MOL     -0.588860
    167 O26         1.7350    1.1560   -0.0090 o         1 MOL     -0.588860
    168 H71        -2.2810    3.6210   -0.4070 hn        1 MOL      0.292909
    169 H72         0.1980    5.0660   -0.8430 h1        1 MOL      0.095322
    170 H73         0.5240    3.5360   -2.6090 hc        1 MOL     -0.094234
    171 H74        -1.1640    3.1340   -2.5660 hc        1 MOL     -0.094234
    172 H75        -0.0930    1.2630   -1.6290 hc        1 MOL     -0.293342
    173 H76        -1.0160    2.0300   -0.3730 hc        1 MOL     -0.293342
    174 N15        -2.3680    5.6910   -2.7120 n         1 MOL     -0.218975
    175 C58        -3.0010    6.6590   -3.5960 c3        1 MOL     -0.272901
    176 H77        -3.5780    7.3680   -3.0030 h1        1 MOL      0.107006
    177 H78        -2.2350    7.1950   -4.1570 h1        1 MOL      0.107006
    178 H79        -3.6640    6.1400   -4.2870 h1        1 MOL      0.107006
    179 H80        -3.0430    5.1200   -2.2070 hn        1 MOL      0.220372
    180 Ca1         4.0150    1.8810    1.3070 Ca        1 MOL      1.803799
    181 O27         3.9370    4.5840    1.8920 oh        1 MOL     -0.895496
    182 H81         3.0760    4.9830    1.7760 ho        1 MOL      0.419950
    183 H82         4.5430    5.2330    1.5270 ho        1 MOL      0.419950
    184 O28         2.3290    2.0060    3.5090 oh        1 MOL     -0.895496
    185 H83         1.5320    2.3810    3.8560 ho        1 MOL      0.419950
    186 H84         2.5750    1.3250    4.1470 ho        1 MOL      0.419950
    187 O29         5.4090    1.3190    3.6090 oh        1 MOL     -0.895496
    188 H85         5.2720    0.8760    4.4530 ho        1 MOL      0.419950
    189 H86         6.2880    1.6880    3.6840 ho        1 MOL      0.419950
@<TRIPOS>BOND
     1    1    2 1   
     2    1    4 1   
     3    1    5 1   
     4    1    6 1   
     5    2    3 2   
     6    2    7 1   
     7    7    8 1   
     8    7   15 1   
     9    8    9 1   
    10    8   11 1   
    11    8   16 1   
    12    9   10 2   
    13    9   19 1   
    14   11   12 1   
    15   11   17 1   
    16   11   18 1   
    17   12   13 1   
    18   12   14 1   
    19   19   20 1   
    20   19   27 1   
    21   20   21 1   
    22   20   23 1   
    23   20   28 1   
    24   21   22 2   
    25   21   38 1   
    26   23   24 1   
    27   23   25 1   
    28   23   29 1   
    29   24   26 1   
    30   24   30 1   
    31   24   31 1   
    32   25   32 1   
    33   25   33 1   
    34   25   34 1   
    35   26   35 1   
    36   26   36 1   
    37   26   37 1   
    38   38   39 1   
    39   38   46 1   
    40   39   40 1   
    41   39   42 1   
    42   39   47 1   
    43   40   41 2   
    44   40   50 1   
    45   42   43 1   
    46   42   48 1   
    47   42   49 1   
    48   43   44 1   
    49   43   45 1   
    50   50   51 1   
    51   50   54 1   
    52   51   52 1   
    53   51   55 1   
    54   51   56 1   
    55   52   53 2   
    56   52   57 1   
    57   57   58 1   
    58   57   65 1   
    59   58   59 1   
    60   58   61 1   
    61   58   66 1   
    62   59   60 2   
    63   59   69 1   
    64   61   62 1   
    65   61   67 1   
    66   61   68 1   
    67   62   63 1   
    68   62   64 1   
    69   69   70 1   
    70   69   73 1   
    71   70   71 1   
    72   70   74 1   
    73   70   75 1   
    74   71   72 2   
    75   71   76 1   
    76   76   77 1   
    77   76   85 1   
    78   77   78 1   
    79   77   80 1   
    80   77   86 1   
    81   78   79 2   
    82   78   93 1   
    83   80   81 1   
    84   80   87 1   
    85   80   88 1   
    86   81   82 1   
    87   81   89 1   
    88   81   90 1   
    89   82   83 1   
    90   82   84 2   
    91   83   91 1   
    92   83   92 1   
    93   93   94 1   
    94   93  100 1   
    95   94   95 1   
    96   94   97 1   
    97   94  101 1   
    98   95   96 2   
    99   95  109 1   
   100   97   98 1   
   101   97   99 1   
   102   97  102 1   
   103   98  103 1   
   104   98  104 1   
   105   98  105 1   
   106   99  106 1   
   107   99  107 1   
   108   99  108 1   
   109  109  110 1   
   110  109  117 1   
   111  110  111 1   
   112  110  113 1   
   113  110  118 1   
   114  111  112 2   
   115  111  123 1   
   116  113  114 1   
   117  113  119 1   
   118  113  120 1   
   119  114  115 1   
   120  114  116 2   
   121  115  121 1   
   122  115  122 1   
   123  123  124 1   
   124  123  135 1   
   125  124  125 1   
   126  124  127 1   
   127  124  136 1   
   128  125  126 2   
   129  125  144 1   
   130  127  128 1   
   131  127  137 1   
   132  127  138 1   
   133  128  129 ar  
   134  128  130 ar  
   135  129  131 ar  
   136  129  139 1   
   137  130  132 ar  
   138  130  140 1   
   139  131  133 ar  
   140  131  141 1   
   141  132  133 ar  
   142  132  142 1   
   143  133  134 1   
   144  134  143 1   
   145  144  145 1   
   146  144  153 1   
   147  145  146 1   
   148  145  148 1   
   149  145  154 1   
   150  146  147 2   
   151  146  159 1   
   152  148  149 1   
   153  148  155 1   
   154  148  156 1   
   155  149  150 1   
   156  149  157 1   
   157  149  158 1   
   158  150  151 1   
   159  150  152 1   
   160  159  160 1   
   161  159  168 1   
   162  160  161 1   
   163  160  163 1   
   164  160  169 1   
   165  161  162 2   
   166  161  174 1   
   167  163  164 1   
   168  163  170 1   
   169  163  171 1   
   170  164  165 1   
   171  164  172 1   
   172  164  173 1   
   173  165  166 1   
   174  165  167 1   
   175  174  175 1   
   176  174  179 1   
   177  175  176 1   
   178  175  177 1   
   179  175  178 1   
   180  181  182 1   
   181  181  183 1   
   182  184  185 1   
   183  184  186 1   
   184  187  188 1   
   185  187  189 1   
@<TRIPOS>SUBSTRUCTURE
     1 MOL         1 TEMP              0 ****  ****    0 ROOT
