@<TRIPOS>MOLECULE
MOL
  178   175     1     0     0
SMALL
resp


@<TRIPOS>ATOM
      1 C1         10.5170   -6.0130    3.0860 c3        1 MOL     -0.304920
      2 C2          9.3100   -5.6620    2.2060 c         1 MOL      0.702804
      3 O1          8.2150   -6.1920    2.3540 o         1 MOL     -0.574402
      4 H1         10.1680   -6.4440    4.0250 hc        1 MOL      0.065684
      5 H2         11.1480   -6.7350    2.5680 hc        1 MOL      0.065684
      6 H3         11.0910   -5.1100    3.2940 hc        1 MOL      0.065684
      7 N1          9.4840   -4.7410    1.2160 n         1 MOL     -0.506586
      8 C3         10.7400   -3.9190    1.0500 c3        1 MOL      0.053511
      9 C4         10.8450   -3.6870   -0.4220 c         1 MOL      0.548523
     10 O2         10.3190   -4.4770   -1.2760 o         1 MOL     -0.485237
     11 C5         10.6930   -2.6540    1.8810 c3        1 MOL      0.033727
     12 C6          9.4250   -1.8290    1.7380 c         1 MOL      0.428428
     13 O3          9.4880   -0.8290    0.9140 o         1 MOL     -0.594134
     14 O4          8.3710   -1.9480    2.4180 o         1 MOL     -0.594134
     15 H4          8.6730   -4.4630    0.6740 hn        1 MOL      0.294784
     16 H5         11.5690   -4.5460    1.3760 h1        1 MOL      0.064731
     17 H6         11.5480   -2.0220    1.6350 hc        1 MOL     -0.021724
     18 H7         10.8030   -2.8480    2.9460 hc        1 MOL     -0.021724
     19 N2         11.6180   -2.6810   -0.8210 n         1 MOL     -0.717491
     20 C7         11.6360   -2.0850   -2.1480 c3        1 MOL      0.646847
     21 C8         10.2580   -1.7220   -2.7940 c         1 MOL      0.121079
     22 O5         10.1850   -1.7950   -4.0020 o         1 MOL     -0.534006
     23 C9         12.5750   -2.9520   -3.0030 c3        1 MOL     -0.425173
     24 H8         12.0770   -2.0260   -0.2000 hn        1 MOL      0.354509
     25 H9         12.1660   -1.1420   -2.0760 h1        1 MOL     -0.074395
     26 H10        13.5740   -3.1090   -2.6000 hc        1 MOL      0.098931
     27 H11        12.0770   -3.9000   -3.2470 hc        1 MOL      0.098931
     28 H12        12.7400   -2.4130   -3.9370 hc        1 MOL      0.098931
     29 N3          9.1640   -1.4710   -2.0760 n         1 MOL      0.383489
     30 C10         7.8020   -1.0420   -2.5740 c3        1 MOL      0.105908
     31 C11         7.4890    0.4140   -2.1540 c         1 MOL      0.181133
     32 O6          8.0150    0.9420   -1.1320 o         1 MOL     -0.446932
     33 C12         6.6990   -2.0210   -2.1460 c3        1 MOL     -0.278652
     34 C13         6.7000   -2.3700   -0.6560 c         1 MOL      0.562616
     35 O7          6.5080   -1.4580    0.1830 o         1 MOL     -0.545602
     36 O8          7.0390   -3.5300   -0.2920 o         1 MOL     -0.545602
     37 H13         9.3080   -1.5270   -1.0740 hn        1 MOL     -0.354119
     38 H14         7.7450   -1.0460   -3.6590 h1        1 MOL      0.016864
     39 H15         6.8580   -2.9740   -2.6590 hc        1 MOL      0.081830
     40 H16         5.7700   -1.4910   -2.3410 hc        1 MOL      0.081830
     41 N4          6.6200    1.0470   -2.9570 n         1 MOL     -0.232243
     42 C14         5.8810    2.3110   -2.6130 c3        1 MOL     -0.322379
     43 C15         5.2040    2.3660   -1.2330 c         1 MOL      0.764348
     44 O9          5.3130    1.4310   -0.4100 o         1 MOL     -0.586809
     45 H17         6.2520    0.4390   -3.6720 hn        1 MOL      0.301028
     46 H18         5.1790    2.4760   -3.4240 h1        1 MOL      0.145495
     47 H19         6.6040    3.0960   -2.3820 h1        1 MOL      0.145495
     48 N5          4.5840    3.4900   -0.8840 n         1 MOL     -0.760929
     49 C16         3.9320    3.6990    0.4160 c3        1 MOL      0.364570
     50 C17         2.5100    4.2750    0.2190 c         1 MOL      0.546105
     51 O10         2.2630    5.4370    0.5310 o         1 MOL     -0.562260
     52 C18         4.8620    4.5350    1.2250 c3        1 MOL     -0.241418
     53 C19         6.0200    3.8580    1.8530 c         1 MOL      0.723810
     54 N6          6.9430    4.6190    2.3470 n         1 MOL     -0.696572
     55 O11         6.0710    2.6530    2.0440 o         1 MOL     -0.683905
     56 H20         4.6520    4.1990   -1.5980 hn        1 MOL      0.358851
     57 H21         3.6810    2.8060    0.9940 h1        1 MOL      0.017168
     58 H22         4.3490    4.8420    2.1460 hc        1 MOL      0.066117
     59 H23         5.1990    5.4660    0.7770 hc        1 MOL      0.066117
     60 H24         6.8730    5.6190    2.1730 hn        1 MOL      0.315013
     61 H25         7.6180    4.2240    2.9790 hn        1 MOL      0.315013
     62 N7          1.7000    3.5290   -0.5010 n         1 MOL     -0.562410
     63 C20         0.3680    3.8140   -0.9070 c3        1 MOL      0.098661
     64 C21         0.1680    4.8450   -2.0470 c         1 MOL      0.722500
     65 O12         0.7810    4.7710   -3.1000 o         1 MOL     -0.587022
     66 H26         2.0380    2.5930   -0.6560 hn        1 MOL      0.336087
     67 H27        -0.0680    4.2060    0.0210 h1        1 MOL      0.065790
     68 H28        -0.2460    2.9940   -1.2710 h1        1 MOL      0.065790
     69 N8         -0.7740    5.8290   -1.8880 n         1 MOL     -0.608860
     70 C22        -1.6800    6.1870   -0.7180 c3        1 MOL     -0.174226
     71 C23        -2.7120    5.1080   -0.4800 c         1 MOL      0.674684
     72 O13        -3.5530    4.8690   -1.3690 o         1 MOL     -0.504953
     73 C24        -2.3690    7.4700   -0.9990 c3        1 MOL      0.531838
     74 C25        -3.2160    8.0540    0.1530 c3        1 MOL     -0.410094
     75 O14        -1.4050    8.4260   -1.2830 oh        1 MOL     -0.680400
     76 H29        -0.7850    6.4470   -2.6960 hn        1 MOL      0.334475
     77 H30        -1.0750    6.3960    0.1600 h1        1 MOL      0.065440
     78 H31        -3.0280    7.4230   -1.8620 h1        1 MOL      0.044854
     79 H32        -0.7200    8.4410   -0.6160 ho        1 MOL      0.398121
     80 H33        -3.4390    9.1070   -0.0140 hc        1 MOL      0.097484
     81 H34        -4.1400    7.4750    0.1590 hc        1 MOL      0.097484
     82 H35        -2.7700    7.8910    1.1340 hc        1 MOL      0.097484
     83 N9         -2.6080    4.4300    0.6970 n         1 MOL     -0.700386
     84 C26        -3.4330    3.2420    0.9190 c3        1 MOL      0.001276
     85 C27        -4.9140    3.4470    0.7790 c         1 MOL      0.718664
     86 O15        -5.4540    4.5620    1.0570 o         1 MOL     -0.586603
     87 C28        -3.1780    2.6520    2.3130 c3        1 MOL      0.038301
     88 C29        -3.3830    3.7890    3.4210 c3        1 MOL      0.238509
     89 C30        -1.7710    2.0540    2.2320 c3        1 MOL     -0.225319
     90 C31        -3.9060    3.2120    4.7380 c3        1 MOL     -0.214632
     91 H36        -1.9130    4.7750    1.3360 hn        1 MOL      0.332266
     92 H37        -3.0960    2.4780    0.2230 h1        1 MOL      0.151799
     93 H38        -3.8440    1.8010    2.4520 hc        1 MOL      0.071445
     94 H39        -4.0990    4.5080    3.0060 hc        1 MOL     -0.058156
     95 H40        -2.4660    4.3530    3.6020 hc        1 MOL     -0.058156
     96 H41        -1.5430    1.6410    3.2160 hc        1 MOL      0.042415
     97 H42        -1.7180    1.2560    1.4860 hc        1 MOL      0.042415
     98 H43        -0.9520    2.7370    1.9960 hc        1 MOL      0.042415
     99 H44        -4.2570    4.0230    5.3770 hc        1 MOL      0.038186
    100 H45        -4.7560    2.5470    4.5790 hc        1 MOL      0.038186
    101 H46        -3.0710    2.6630    5.1820 hc        1 MOL      0.038186
    102 N10        -5.7530    2.4200    0.4920 n         1 MOL     -0.726864
    103 C32        -5.3690    0.9930    0.0400 c3        1 MOL      0.095993
    104 C33        -6.4710   -0.0290    0.3610 c         1 MOL      0.420836
    105 O16        -6.2460   -1.1010    0.9200 o         1 MOL     -0.541264
    106 C34        -5.0440    1.0430   -1.4820 c3        1 MOL     -0.216778
    107 C35        -5.9210    1.9820   -2.3780 c         1 MOL      0.793920
    108 O17        -7.0130    2.4020   -1.9810 o         1 MOL     -0.706178
    109 O18        -5.5970    2.0000   -3.6060 o         1 MOL     -0.706178
    110 H47        -6.6940    2.7780    0.4010 hn        1 MOL      0.330193
    111 H48        -4.4870    0.8000    0.6570 h1        1 MOL      0.050227
    112 H49        -5.1450    0.0580   -1.9510 hc        1 MOL      0.049209
    113 H50        -4.0440    1.4060   -1.7120 hc        1 MOL      0.049209
    114 N11        -7.7190    0.3170   -0.0090 n         1 MOL     -0.268719
    115 C36        -8.9120   -0.4010    0.1420 c3        1 MOL      0.353353
    116 C37        -9.3200   -1.0160   -1.2140 c         1 MOL      0.163215
    117 O19        -9.1250   -0.3010   -2.2640 o         1 MOL     -0.453536
    118 C38        -9.9590    0.5280    0.7500 c3        1 MOL     -0.187462
    119 C39       -11.0200   -0.2490    1.5880 ca        1 MOL      0.051390
    120 C40       -12.1920   -0.8110    0.8950 ca        1 MOL     -0.122326
    121 C41       -10.9530   -0.4950    2.9480 ca        1 MOL     -0.122326
    122 C42       -13.2050   -1.5230    1.6110 ca        1 MOL     -0.131228
    123 C43       -12.0060   -1.0320    3.6210 ca        1 MOL     -0.131228
    124 C44       -13.1580   -1.5850    3.0020 ca        1 MOL     -0.149229
    125 H51        -7.7360    1.2220   -0.4700 hn        1 MOL      0.248376
    126 H52        -8.7690   -1.2770    0.7650 h1        1 MOL      0.002974
    127 H53       -10.5110    1.0710   -0.0210 hc        1 MOL      0.063896
    128 H54        -9.4250    1.2320    1.3990 hc        1 MOL      0.063896
    129 H55       -12.4820   -0.6080   -0.1280 ha        1 MOL      0.118916
    130 H56       -10.0620   -0.2550    3.5050 ha        1 MOL      0.118916
    131 H57       -14.0040   -1.9410    1.0100 ha        1 MOL      0.102636
    132 H58       -11.9090   -1.2020    4.6760 ha        1 MOL      0.102636
    133 H59       -13.8690   -2.1430    3.5780 ha        1 MOL      0.113982
    134 N12        -9.7470   -2.2830   -1.3000 n         1 MOL     -0.024771
    135 C45       -10.0280   -3.1830   -0.2180 c3        1 MOL     -0.010233
    136 C46        -8.7440   -3.8200    0.2900 c         1 MOL      0.390415
    137 O20        -8.3970   -3.8490    1.5100 o         1 MOL     -0.547642
    138 C47       -11.0560   -4.2180   -0.7930 c3        1 MOL     -0.026573
    139 C48       -10.7240   -4.2860   -2.2020 c3        1 MOL     -0.118178
    140 C49       -10.1810   -2.9150   -2.5530 c3        1 MOL      0.082183
    141 H60       -10.5250   -2.6830    0.6100 h1        1 MOL      0.068215
    142 H61       -10.9980   -5.1830   -0.2720 hc        1 MOL      0.024223
    143 H62       -12.0310   -3.7620   -0.6090 hc        1 MOL      0.024223
    144 H63        -9.8410   -4.9040   -2.3590 hc        1 MOL      0.029218
    145 H64       -11.6580   -4.4590   -2.7410 hc        1 MOL      0.029218
    146 H65        -9.3460   -2.9960   -3.2570 h1        1 MOL      0.027620
    147 H66       -10.9640   -2.3190   -3.0140 h1        1 MOL      0.027620
    148 N13        -7.8730   -4.2760   -0.5880 n         1 MOL     -0.209120
    149 C50        -6.5720   -4.7920   -0.2460 c3        1 MOL      0.014683
    150 C51        -6.6260   -6.3020    0.0690 c         1 MOL      0.375619
    151 O21        -6.6520   -7.1240   -0.8230 o         1 MOL     -0.546451
    152 C52        -5.4430   -4.5110   -1.3480 c3        1 MOL     -0.026286
    153 C53        -5.2960   -3.0060   -1.6810 c3        1 MOL     -0.348040
    154 C54        -4.3810   -2.9760   -2.9190 c         1 MOL      0.767002
    155 O22        -4.9370   -3.0560   -3.9960 o         1 MOL     -0.673154
    156 O23        -3.1340   -2.8840   -2.8870 o         1 MOL     -0.673154
    157 H67        -8.0150   -4.2130   -1.5770 hn        1 MOL      0.299428
    158 H68        -6.1610   -4.3830    0.6780 h1        1 MOL      0.117968
    159 H69        -5.6910   -5.1290   -2.2120 hc        1 MOL      0.042897
    160 H70        -4.4670   -4.8860   -1.0500 hc        1 MOL      0.042897
    161 H71        -4.8060   -2.4680   -0.8790 hc        1 MOL      0.095721
    162 H72        -6.2600   -2.5760   -1.9540 hc        1 MOL      0.095721
    163 N14        -6.5710   -6.7970    1.3480 n         1 MOL     -0.323555
    164 C55        -6.4450   -6.0580    2.6140 c3        1 MOL     -0.080381
    165 H73        -5.4260   -6.1510    2.9890 h1        1 MOL      0.054159
    166 H74        -6.6750   -5.0060    2.4460 h1        1 MOL      0.054159
    167 H75        -7.1390   -6.4690    3.3470 h1        1 MOL      0.054159
    168 H76        -6.4940   -7.7910    1.5180 hn        1 MOL      0.257873
    169 Ca1         7.3520    0.5320    1.5110 Ca        1 MOL      1.737679
    170 O24         9.2260    2.4980    1.7090 oh        1 MOL     -0.844754
    171 H77         9.9850    2.6700    1.1360 ho        1 MOL      0.395111
    172 H78         9.5140    2.7750    2.5750 ho        1 MOL      0.395111
    173 O25         7.5490    0.7070    4.1330 oh        1 MOL     -0.844754
    174 H79         6.7920    0.8590    4.7070 ho        1 MOL      0.395111
    175 H80         8.1600    0.2110    4.6580 ho        1 MOL      0.395111
    176 O26         5.2880   -0.5800    2.7360 oh        1 MOL     -0.844754
    177 H81         4.3840   -0.8580    2.6150 ho        1 MOL      0.395111
    178 H82         5.2870   -0.0750    3.5470 ho        1 MOL      0.395111
@<TRIPOS>BOND
     1    1    2 1   
     2    1    4 1   
     3    1    5 1   
     4    1    6 1   
     5    2    3 2   
     6    2    7 1   
     7    7    8 1   
     8    7   15 1   
     9    8    9 1   
    10    8   11 1   
    11    8   16 1   
    12    9   10 2   
    13    9   19 1   
    14   11   12 1   
    15   11   17 1   
    16   11   18 1   
    17   12   13 1   
    18   12   14 1   
    19   19   20 1   
    20   19   24 1   
    21   20   21 1   
    22   20   23 1   
    23   20   25 1   
    24   21   22 2   
    25   21   29 1   
    26   23   26 1   
    27   23   27 1   
    28   23   28 1   
    29   29   30 1   
    30   29   37 1   
    31   30   31 1   
    32   30   33 1   
    33   30   38 1   
    34   31   32 2   
    35   31   41 1   
    36   33   34 1   
    37   33   39 1   
    38   33   40 1   
    39   34   35 1   
    40   34   36 1   
    41   41   42 1   
    42   41   45 1   
    43   42   43 1   
    44   42   46 1   
    45   42   47 1   
    46   43   44 2   
    47   43   48 1   
    48   48   49 1   
    49   48   56 1   
    50   49   50 1   
    51   49   52 1   
    52   49   57 1   
    53   50   51 2   
    54   50   62 1   
    55   52   53 1   
    56   52   58 1   
    57   52   59 1   
    58   53   54 1   
    59   53   55 2   
    60   54   60 1   
    61   54   61 1   
    62   62   63 1   
    63   62   66 1   
    64   63   64 1   
    65   63   67 1   
    66   63   68 1   
    67   64   65 2   
    68   64   69 1   
    69   69   70 1   
    70   69   76 1   
    71   70   71 1   
    72   70   73 1   
    73   70   77 1   
    74   71   72 2   
    75   71   83 1   
    76   73   74 1   
    77   73   75 1   
    78   73   78 1   
    79   74   80 1   
    80   74   81 1   
    81   74   82 1   
    82   75   79 1   
    83   83   84 1   
    84   83   91 1   
    85   84   85 1   
    86   84   87 1   
    87   84   92 1   
    88   85   86 2   
    89   85  102 1   
    90   87   88 1   
    91   87   89 1   
    92   87   93 1   
    93   88   90 1   
    94   88   94 1   
    95   88   95 1   
    96   89   96 1   
    97   89   97 1   
    98   89   98 1   
    99   90   99 1   
   100   90  100 1   
   101   90  101 1   
   102  102  103 1   
   103  102  110 1   
   104  103  104 1   
   105  103  106 1   
   106  103  111 1   
   107  104  105 2   
   108  104  114 1   
   109  106  107 1   
   110  106  112 1   
   111  106  113 1   
   112  107  108 1   
   113  107  109 1   
   114  114  115 1   
   115  114  125 1   
   116  115  116 1   
   117  115  118 1   
   118  115  126 1   
   119  116  117 2   
   120  116  134 1   
   121  118  119 1   
   122  118  127 1   
   123  118  128 1   
   124  119  120 ar  
   125  119  121 ar  
   126  120  122 ar  
   127  120  129 1   
   128  121  123 ar  
   129  121  130 1   
   130  122  124 ar  
   131  122  131 1   
   132  123  124 ar  
   133  123  132 1   
   134  124  133 1   
   135  134  135 1   
   136  134  140 1   
   137  135  136 1   
   138  135  138 1   
   139  135  141 1   
   140  136  137 2   
   141  136  148 1   
   142  138  139 1   
   143  138  142 1   
   144  138  143 1   
   145  139  140 1   
   146  139  144 1   
   147  139  145 1   
   148  140  146 1   
   149  140  147 1   
   150  148  149 1   
   151  148  157 1   
   152  149  150 1   
   153  149  152 1   
   154  149  158 1   
   155  150  151 2   
   156  150  163 1   
   157  152  153 1   
   158  152  159 1   
   159  152  160 1   
   160  153  154 1   
   161  153  161 1   
   162  153  162 1   
   163  154  155 1   
   164  154  156 1   
   165  163  164 1   
   166  163  168 1   
   167  164  165 1   
   168  164  166 1   
   169  164  167 1   
   170  170  171 1   
   171  170  172 1   
   172  173  174 1   
   173  173  175 1   
   174  176  177 1   
   175  176  178 1   
@<TRIPOS>SUBSTRUCTURE
     1 MOL         1 TEMP              0 ****  ****    0 ROOT
