@<TRIPOS>MOLECULE
MOL
  195   189     1     0     0
SMALL
resp


@<TRIPOS>ATOM
      1 C1         -9.9760   -0.7620   -4.0350 c3        1 MOL     -0.574963
      2 C2         -8.9630   -0.5900   -2.8890 c         1 MOL      0.650614
      3 O1         -7.7340   -0.5930   -3.1040 o         1 MOL     -0.625887
      4 H1        -10.9640   -0.9600   -3.6190 hc        1 MOL      0.153485
      5 H2        -10.0090    0.1500   -4.6310 hc        1 MOL      0.153485
      6 H3         -9.6730   -1.5980   -4.6650 hc        1 MOL      0.153485
      7 N1         -9.3770   -0.4500   -1.6400 n         1 MOL     -0.332652
      8 C3         -8.5520    0.0530   -0.5080 c3        1 MOL      0.040268
      9 C4         -8.1450   -1.1130    0.2920 c         1 MOL      0.445922
     10 O2         -8.5080   -1.1690    1.4430 o         1 MOL     -0.427292
     11 C5         -9.3170    1.2600    0.1870 c3        1 MOL     -0.060619
     12 C6        -10.7720    0.9800    0.5960 c         1 MOL      0.573403
     13 O3        -11.3010    1.7960    1.3310 o         1 MOL     -0.570693
     14 O4        -11.3120   -0.1780    0.4380 o         1 MOL     -0.570693
     15 H4        -10.3630   -0.6100   -1.5260 hn        1 MOL      0.182438
     16 H5         -7.5890    0.4270   -0.8420 h1        1 MOL      0.021826
     17 H6         -9.3390    2.1130   -0.4850 hc        1 MOL      0.048057
     18 H7         -8.8730    1.6760    1.0910 hc        1 MOL      0.048057
     19 N2         -7.4180   -2.0210   -0.3080 n         1 MOL     -0.344268
     20 C7         -7.0820   -3.2870    0.3350 c3        1 MOL     -0.055144
     21 C8         -6.1140   -3.2430    1.5170 c         1 MOL      0.559932
     22 O5         -6.3260   -3.9850    2.4400 o         1 MOL     -0.531986
     23 C9         -6.6580   -4.2320   -0.7980 c3        1 MOL      0.012387
     24 C10        -6.7350   -5.7870   -0.5940 c3        1 MOL      0.079790
     25 C11        -6.0490   -6.3850   -1.7530 c3        1 MOL      0.016248
     26 C12        -6.2150   -7.8550   -1.9870 c3        1 MOL     -0.108141
     27 N3         -7.5550   -8.2770   -2.3690 n4        1 MOL     -0.291942
     28 H8         -7.1990   -1.9890   -1.2960 hn        1 MOL      0.193118
     29 H9         -7.9730   -3.7010    0.8000 h1        1 MOL      0.086306
     30 H10        -5.6050   -4.0500   -0.9900 hc        1 MOL      0.016783
     31 H11        -7.1740   -3.9240   -1.7150 hc        1 MOL      0.016783
     32 H12        -7.7990   -6.0130   -0.5980 hc        1 MOL     -0.003714
     33 H13        -6.2910   -6.1550    0.3320 hc        1 MOL     -0.003714
     34 H14        -4.9720   -6.2670   -1.6260 hc        1 MOL      0.030357
     35 H15        -6.2540   -5.8150   -2.6540 hc        1 MOL      0.030357
     36 H16        -5.9250   -8.3320   -1.0470 hx        1 MOL      0.124173
     37 H17        -5.4470   -8.1270   -2.7040 hx        1 MOL      0.124173
     38 H18        -7.5960   -9.1630   -2.8490 hn        1 MOL      0.287171
     39 H19        -8.1310   -8.2780   -1.5440 hn        1 MOL      0.287171
     40 H20        -8.0630   -7.6210   -2.9520 hn        1 MOL      0.287171
     41 N4         -4.8910   -2.5920    1.4700 n         1 MOL     -0.568398
     42 C13        -4.3870   -1.5800    0.5130 c3        1 MOL      0.109726
     43 C14        -4.7270   -0.1510    0.8000 c         1 MOL      0.424865
     44 O6         -5.1820    0.2950    1.9040 o         1 MOL     -0.369674
     45 C15        -2.8780   -1.8690    0.2640 c3        1 MOL     -0.123479
     46 C16        -1.9730   -1.8470    1.4780 c         1 MOL      0.558575
     47 O7         -0.7820   -1.4630    1.3300 o         1 MOL     -0.631950
     48 O8         -2.3440   -2.4370    2.6190 o         1 MOL     -0.631950
     49 H21        -4.2270   -2.8750    2.1780 hn        1 MOL      0.363402
     50 H22        -4.8330   -1.8000   -0.4670 h1        1 MOL      0.028150
     51 H23        -2.4590   -1.1080   -0.3920 hc        1 MOL      0.029660
     52 H24        -2.6810   -2.8250   -0.2360 hc        1 MOL      0.029660
     53 N5         -4.5190    0.6830   -0.2040 n         1 MOL     -0.327463
     54 C17        -4.6300    2.1740   -0.1520 c3        1 MOL     -0.035032
     55 C18        -3.5240    2.8740    0.6050 c         1 MOL      0.421625
     56 O9         -2.4540    2.3490    0.7410 o         1 MOL     -0.420923
     57 H25        -4.1980    0.2900   -1.0890 hn        1 MOL      0.227094
     58 H26        -5.5590    2.3270    0.3920 h1        1 MOL      0.066023
     59 H27        -4.6850    2.6610   -1.1300 h1        1 MOL      0.066023
     60 N6         -3.8190    4.0680    1.0670 n         1 MOL     -0.300418
     61 C19        -2.8170    4.9630    1.6550 c3        1 MOL      0.239219
     62 C20        -2.9030    6.3830    1.1170 c         1 MOL      0.312248
     63 O10        -4.0430    6.8440    0.7980 o         1 MOL     -0.514877
     64 C21        -3.0220    5.1080    3.2050 c3        1 MOL     -0.410516
     65 C22        -2.9350    3.7550    3.8740 c         1 MOL      0.798467
     66 O11        -1.7970    3.3480    4.3230 o         1 MOL     -0.721784
     67 O12        -3.8970    3.0020    3.9510 o         1 MOL     -0.721784
     68 H28        -4.6930    4.5310    0.8650 hn        1 MOL      0.259923
     69 H29        -1.8560    4.4930    1.4290 h1        1 MOL     -0.029082
     70 H30        -3.9350    5.6630    3.4140 hc        1 MOL      0.107703
     71 H31        -2.1560    5.7230    3.4500 hc        1 MOL      0.107703
     72 N7         -1.8160    7.1540    1.1230 n         1 MOL     -0.285893
     73 C23        -0.4490    6.6320    1.3060 c3        1 MOL      0.015135
     74 C24         0.0610    5.7850    0.1430 c         1 MOL      0.587288
     75 O13        -0.6780    5.6880   -0.8410 o         1 MOL     -0.530486
     76 H32        -1.9040    8.1350    0.8900 hn        1 MOL      0.276712
     77 H33        -0.4390    6.0480    2.2340 h1        1 MOL      0.009975
     78 H34         0.2480    7.4670    1.3230 h1        1 MOL      0.009975
     79 N8          1.2260    5.2760    0.3010 n         1 MOL     -0.487331
     80 C25         1.8560    4.4710   -0.7790 c3        1 MOL     -0.029083
     81 C26         1.3490    3.0280   -0.8050 c         1 MOL      1.137707
     82 O14         1.0360    2.3250    0.1720 o         1 MOL     -0.811835
     83 C27         3.4090    4.6360   -0.6440 c3        1 MOL      0.275383
     84 C28         4.1980    4.2750   -1.8820 c3        1 MOL     -0.174236
     85 O15         3.9920    4.0030    0.4860 oh        1 MOL     -0.663522
     86 H35         1.8310    5.4200    1.1000 hn        1 MOL      0.286834
     87 H36         1.6030    4.8370   -1.7640 h1        1 MOL      0.049193
     88 H37         3.5950    5.6870   -0.4310 h1        1 MOL      0.020546
     89 H38         4.6530    4.6200    0.8170 ho        1 MOL      0.434571
     90 H39         4.3100    3.1980   -1.9620 hc        1 MOL      0.047219
     91 H40         3.5640    4.5070   -2.7440 hc        1 MOL      0.047219
     92 H41         5.1750    4.7650   -1.8280 hc        1 MOL      0.047219
     93 N9          1.1090    2.6200   -2.0210 n         1 MOL     -0.794701
     94 C29         0.6010    1.4140   -2.5340 c3        1 MOL     -0.246328
     95 C30         1.3560    0.1780   -2.0990 c         1 MOL      0.971106
     96 O16         1.3720   -0.0860   -0.9350 o         1 MOL     -0.723237
     97 C31        -0.9460    1.2840   -2.2830 c3        1 MOL      0.213985
     98 C32        -1.5880    2.6550   -2.4540 c3        1 MOL     -0.347428
     99 C33        -1.7000    0.2510   -3.1640 c3        1 MOL     -0.432612
    100 C34        -1.2760    3.3550   -3.8040 c3        1 MOL      0.068862
    101 H42         1.4460    3.2410   -2.7570 hn        1 MOL      0.392266
    102 H43         0.8330    1.4690   -3.5940 h1        1 MOL      0.125283
    103 H44        -1.1300    1.0190   -1.2400 hc        1 MOL     -0.042968
    104 H45        -1.4620    3.4310   -1.6880 hc        1 MOL      0.165911
    105 H46        -2.6660    2.5010   -2.4540 hc        1 MOL      0.165911
    106 H47        -2.7460    0.2210   -2.8590 hc        1 MOL      0.110508
    107 H48        -1.6100    0.4830   -4.2250 hc        1 MOL      0.110508
    108 H49        -1.2860   -0.7520   -3.0520 hc        1 MOL      0.110508
    109 H50        -2.2090    3.7740   -4.1600 hc        1 MOL     -0.015967
    110 H51        -0.5960    4.1670   -3.5380 hc        1 MOL     -0.015967
    111 H52        -0.7470    2.8300   -4.5980 hc        1 MOL     -0.015967
    112 N10         2.0040   -0.4600   -3.1280 n         1 MOL     -0.581203
    113 C35         2.6970   -1.7930   -3.0140 c3        1 MOL     -0.080269
    114 C36         4.2920   -1.7270   -2.9520 c         1 MOL      0.333264
    115 O17         4.9950   -2.7030   -2.9890 o         1 MOL     -0.523789
    116 C37         2.2650   -2.6710   -4.2840 c3        1 MOL      0.512882
    117 C38         2.8110   -2.0850   -5.5720 c3        1 MOL     -0.424094
    118 O18         0.8380   -2.7720   -4.3430 oh        1 MOL     -0.645986
    119 H53         1.9870   -0.0770   -4.0610 hn        1 MOL      0.257047
    120 H54         2.3210   -2.3540   -2.1550 h1        1 MOL      0.142529
    121 H55         2.6700   -3.6720   -4.1620 h1        1 MOL      0.024929
    122 H56         0.5040   -2.1110   -4.9530 ho        1 MOL      0.394789
    123 H57         2.3650   -1.1030   -5.7220 hc        1 MOL      0.105035
    124 H58         3.8680   -1.8220   -5.5000 hc        1 MOL      0.105035
    125 H59         2.5640   -2.8220   -6.3240 hc        1 MOL      0.105035
    126 N11         4.7690   -0.4770   -2.9340 n         1 MOL     -0.103431
    127 C39         6.1950   -0.0800   -3.0890 c3        1 MOL     -0.209554
    128 C40         7.0320   -0.2860   -1.8240 c         1 MOL      0.653050
    129 O19         7.5680    0.7140   -1.2790 o         1 MOL     -0.562043
    130 C41         6.3350    1.4270   -3.6170 c3        1 MOL      0.382181
    131 C42         7.6530    1.7210   -4.3990 c3        1 MOL     -0.203899
    132 O20         5.2980    1.6810   -4.5040 oh        1 MOL     -0.639053
    133 H60         4.0960    0.2760   -2.8900 hn        1 MOL      0.183201
    134 H61         6.5820   -0.6630   -3.9260 h1        1 MOL      0.091900
    135 H62         6.1180    2.1490   -2.8240 h1        1 MOL      0.038699
    136 H63         5.4510    1.1810   -5.3180 ho        1 MOL      0.398153
    137 H64         7.6370    2.7410   -4.7790 hc        1 MOL      0.050608
    138 H65         8.5120    1.6610   -3.7440 hc        1 MOL      0.050608
    139 H66         7.7060    1.0690   -5.2680 hc        1 MOL      0.050608
    140 N12         7.1460   -1.5570   -1.4550 n         1 MOL     -0.703544
    141 C43         7.5760   -1.9190   -0.0690 c3        1 MOL      0.203955
    142 C44         6.4780   -1.4800    0.9850 c         1 MOL      0.525560
    143 O21         5.8610   -0.3850    0.9160 o         1 MOL     -0.547304
    144 C45         8.9460   -1.4090    0.3990 c3        1 MOL     -0.186888
    145 C46         9.9690   -1.7540   -0.6550 c3        1 MOL     -0.039310
    146 C47        11.3600   -1.2630   -0.4160 c3        1 MOL      0.049293
    147 C48        11.5260    0.2420   -0.5530 c3        1 MOL     -0.021094
    148 N13        12.8980    0.7080   -0.7830 n4        1 MOL     -0.081435
    149 H67         6.4750   -2.1730   -1.9070 hn        1 MOL      0.409506
    150 H68         7.5360   -3.0050   -0.0580 h1        1 MOL      0.049044
    151 H69         9.2560   -1.8980    1.3300 hc        1 MOL      0.094165
    152 H70         8.9300   -0.3360    0.5770 hc        1 MOL      0.094165
    153 H71         9.6880   -1.4780   -1.6740 hc        1 MOL      0.037115
    154 H72        10.0840   -2.8360   -0.7120 hc        1 MOL      0.037115
    155 H73        12.0830   -1.7350   -1.0740 hc        1 MOL      0.006755
    156 H74        11.6540   -1.4990    0.6090 hc        1 MOL      0.006755
    157 H75        11.1520    0.5780    0.4100 hx        1 MOL      0.087240
    158 H76        10.9390    0.6270   -1.3830 hx        1 MOL      0.087240
    159 H77        13.4900    0.2010   -0.1310 hn        1 MOL      0.170599
    160 H78        13.2870    0.5090   -1.6930 hn        1 MOL      0.170599
    161 H79        13.0430    1.6720   -0.5160 hn        1 MOL      0.170599
    162 N14         6.1710   -2.3940    1.9110 n         1 MOL     -0.732287
    163 C49         4.9770   -2.4090    2.8020 c3        1 MOL      0.719574
    164 C50         3.6070   -2.5370    2.0170 c         1 MOL      0.449068
    165 O22         2.7640   -1.6570    2.0910 o         1 MOL     -0.697437
    166 C51         5.1950   -3.5370    3.7490 c3        1 MOL     -0.235288
    167 C52         6.2470   -3.2420    4.7620 c3        1 MOL     -0.221777
    168 C53         6.2860   -4.3450    5.8270 c         1 MOL      0.760938
    169 O23         5.2530   -4.6440    6.4330 o         1 MOL     -0.680616
    170 O24         7.3300   -4.8320    6.1340 o         1 MOL     -0.680616
    171 H80         6.8170   -3.1700    1.9660 hn        1 MOL      0.328831
    172 H81         4.9660   -1.5260    3.4430 h1        1 MOL     -0.049674
    173 H82         5.3710   -4.4660    3.2230 hc        1 MOL      0.053739
    174 H83         4.1970   -3.6190    4.1720 hc        1 MOL      0.053739
    175 H84         6.0470   -2.2810    5.2380 hc        1 MOL      0.031881
    176 H85         7.2270   -3.1030    4.3110 hc        1 MOL      0.031881
    177 N15         3.3490   -3.4800    1.1170 n         1 MOL     -0.297566
    178 C54         3.9760   -4.7620    0.9430 c3        1 MOL     -0.028564
    179 H86         3.2350   -5.5500    1.0800 h1        1 MOL      0.046616
    180 H87         4.3950   -4.8290   -0.0610 h1        1 MOL      0.046616
    181 H88         4.7720   -4.8810    1.6790 h1        1 MOL      0.046616
    182 H89         2.4540   -3.3600    0.6680 hn        1 MOL      0.264483
    183 Ca1         1.0820    0.2540    1.6490 Ca        1 MOL      1.852687
    184 O25         0.9280   -0.6180    4.1800 oh        1 MOL     -0.904157
    185 H90         1.6760   -0.8440    4.7410 ho        1 MOL      0.437646
    186 H91         0.1640   -0.7230    4.7520 ho        1 MOL      0.437646
    187 O26        -0.9220    1.3720    2.6650 oh        1 MOL     -0.904157
    188 H92        -1.3290    1.6140    3.4980 ho        1 MOL      0.437646
    189 H93        -1.5530    1.6600    2.0000 ho        1 MOL      0.437646
    190 O27         3.5220    1.2060    1.0590 oh        1 MOL     -0.904157
    191 H94         4.2570    0.5990    1.1440 ho        1 MOL      0.437646
    192 H95         3.9090    2.0690    1.2130 ho        1 MOL      0.437646
    193 O28         2.1710    2.1590    3.3390 oh        1 MOL     -0.904157
    194 H96         2.3330    3.0970    3.2040 ho        1 MOL      0.437646
    195 H97         1.8370    2.1070    4.2350 ho        1 MOL      0.437646
@<TRIPOS>BOND
     1    1    2 1   
     2    1    4 1   
     3    1    5 1   
     4    1    6 1   
     5    2    3 2   
     6    2    7 1   
     7    7    8 1   
     8    7   15 1   
     9    8    9 1   
    10    8   11 1   
    11    8   16 1   
    12    9   10 2   
    13    9   19 1   
    14   11   12 1   
    15   11   17 1   
    16   11   18 1   
    17   12   13 1   
    18   12   14 1   
    19   19   20 1   
    20   19   28 1   
    21   20   21 1   
    22   20   23 1   
    23   20   29 1   
    24   21   22 2   
    25   21   41 1   
    26   23   24 1   
    27   23   30 1   
    28   23   31 1   
    29   24   25 1   
    30   24   32 1   
    31   24   33 1   
    32   25   26 1   
    33   25   34 1   
    34   25   35 1   
    35   26   27 1   
    36   26   36 1   
    37   26   37 1   
    38   27   38 1   
    39   27   39 1   
    40   27   40 1   
    41   41   42 1   
    42   41   49 1   
    43   42   43 1   
    44   42   45 1   
    45   42   50 1   
    46   43   44 2   
    47   43   53 1   
    48   45   46 1   
    49   45   51 1   
    50   45   52 1   
    51   46   47 1   
    52   46   48 1   
    53   53   54 1   
    54   53   57 1   
    55   54   55 1   
    56   54   58 1   
    57   54   59 1   
    58   55   56 2   
    59   55   60 1   
    60   60   61 1   
    61   60   68 1   
    62   61   62 1   
    63   61   64 1   
    64   61   69 1   
    65   62   63 2   
    66   62   72 1   
    67   64   65 1   
    68   64   70 1   
    69   64   71 1   
    70   65   66 1   
    71   65   67 1   
    72   72   73 1   
    73   72   76 1   
    74   73   74 1   
    75   73   77 1   
    76   73   78 1   
    77   74   75 2   
    78   74   79 1   
    79   79   80 1   
    80   79   86 1   
    81   80   81 1   
    82   80   83 1   
    83   80   87 1   
    84   81   82 2   
    85   81   93 1   
    86   83   84 1   
    87   83   85 1   
    88   83   88 1   
    89   84   90 1   
    90   84   91 1   
    91   84   92 1   
    92   85   89 1   
    93   93   94 1   
    94   93  101 1   
    95   94   95 1   
    96   94   97 1   
    97   94  102 1   
    98   95   96 2   
    99   95  112 1   
   100   97   98 1   
   101   97   99 1   
   102   97  103 1   
   103   98  100 1   
   104   98  104 1   
   105   98  105 1   
   106   99  106 1   
   107   99  107 1   
   108   99  108 1   
   109  100  109 1   
   110  100  110 1   
   111  100  111 1   
   112  112  113 1   
   113  112  119 1   
   114  113  114 1   
   115  113  116 1   
   116  113  120 1   
   117  114  115 2   
   118  114  126 1   
   119  116  117 1   
   120  116  118 1   
   121  116  121 1   
   122  117  123 1   
   123  117  124 1   
   124  117  125 1   
   125  118  122 1   
   126  126  127 1   
   127  126  133 1   
   128  127  128 1   
   129  127  130 1   
   130  127  134 1   
   131  128  129 2   
   132  128  140 1   
   133  130  131 1   
   134  130  132 1   
   135  130  135 1   
   136  131  137 1   
   137  131  138 1   
   138  131  139 1   
   139  132  136 1   
   140  140  141 1   
   141  140  149 1   
   142  141  142 1   
   143  141  144 1   
   144  141  150 1   
   145  142  143 2   
   146  142  162 1   
   147  144  145 1   
   148  144  151 1   
   149  144  152 1   
   150  145  146 1   
   151  145  153 1   
   152  145  154 1   
   153  146  147 1   
   154  146  155 1   
   155  146  156 1   
   156  147  148 1   
   157  147  157 1   
   158  147  158 1   
   159  148  159 1   
   160  148  160 1   
   161  148  161 1   
   162  162  163 1   
   163  162  171 1   
   164  163  164 1   
   165  163  166 1   
   166  163  172 1   
   167  164  165 2   
   168  164  177 1   
   169  166  167 1   
   170  166  173 1   
   171  166  174 1   
   172  167  168 1   
   173  167  175 1   
   174  167  176 1   
   175  168  169 1   
   176  168  170 1   
   177  177  178 1   
   178  177  182 1   
   179  178  179 1   
   180  178  180 1   
   181  178  181 1   
   182  184  185 1   
   183  184  186 1   
   184  187  188 1   
   185  187  189 1   
   186  190  191 1   
   187  190  192 1   
   188  193  194 1   
   189  193  195 1   
@<TRIPOS>SUBSTRUCTURE
     1 MOL         1 TEMP              0 ****  ****    0 ROOT
