@<TRIPOS>MOLECULE
MOL
  182   178     1     0     0
SMALL
resp


@<TRIPOS>ATOM
      1 C1          0.8790   -4.1760    6.0910 c3        1 MOL     -0.343931
      2 C2          0.7930   -3.9560    4.5330 c         1 MOL      0.702569
      3 O1         -0.2360   -3.8890    3.8890 o         1 MOL     -0.584650
      4 H1          1.1560   -3.2400    6.5740 hc        1 MOL      0.093401
      5 H2         -0.0900   -4.5050    6.4650 hc        1 MOL      0.093401
      6 H3          1.6300   -4.9350    6.3100 hc        1 MOL      0.093401
      7 N1          2.0090   -3.7280    3.9640 n         1 MOL     -0.541183
      8 C3          2.2170   -3.2150    2.5860 c3        1 MOL     -0.045577
      9 C4          2.4520   -4.3630    1.6170 c         1 MOL      0.578130
     10 O2          3.1930   -5.3040    1.8340 o         1 MOL     -0.557357
     11 C5          3.3680   -2.1410    2.6770 c3        1 MOL      0.108858
     12 C6          3.4840   -1.2870    1.4810 c         1 MOL      0.434223
     13 O3          4.3000   -0.3370    1.4790 o         1 MOL     -0.616979
     14 O4          2.7290   -1.4950    0.5160 o         1 MOL     -0.616979
     15 H4          2.8410   -3.7610    4.5460 hn        1 MOL      0.294327
     16 H5          1.2870   -2.7770    2.2440 h1        1 MOL      0.088700
     17 H6          4.3250   -2.6380    2.8770 hc        1 MOL      0.010000
     18 H7          3.2570   -1.5340    3.5680 hc        1 MOL      0.010000
     19 N2          1.7580   -4.3870    0.4520 n         1 MOL     -0.357326
     20 C7          1.8510   -5.3810   -0.6190 c3        1 MOL     -0.015444
     21 C8          3.0690   -5.2100   -1.5430 c         1 MOL      0.472690
     22 O5          3.2690   -5.9160   -2.5290 o         1 MOL     -0.547643
     23 C9          0.4350   -5.4380   -1.3890 c3        1 MOL     -0.004010
     24 C10        -0.6840   -5.7900   -0.3750 c3        1 MOL      0.064800
     25 C11        -2.0210   -6.1070   -1.0310 c3        1 MOL     -0.369201
     26 C12        -2.4820   -5.1720   -2.1820 c3        1 MOL      0.293511
     27 N3         -3.8160   -5.5790   -2.6570 n4        1 MOL     -0.314429
     28 H8          1.1560   -3.5810    0.4050 hn        1 MOL      0.163480
     29 H9          2.0130   -6.3500   -0.1400 h1        1 MOL      0.104389
     30 H10         0.4450   -6.3200   -2.0330 hc        1 MOL      0.020615
     31 H11         0.2720   -4.4980   -1.9190 hc        1 MOL      0.020615
     32 H12        -0.8640   -5.0080    0.3680 hc        1 MOL      0.039528
     33 H13        -0.3200   -6.6650    0.1690 hc        1 MOL      0.039528
     34 H14        -2.7270   -6.2270   -0.2070 hc        1 MOL      0.115182
     35 H15        -1.8290   -7.0530   -1.5270 hc        1 MOL      0.115182
     36 H16        -1.8970   -5.2000   -3.0970 hx        1 MOL      0.012720
     37 H17        -2.5750   -4.1250   -1.8790 hx        1 MOL      0.012720
     38 H18        -4.5590   -5.1050   -2.1600 hn        1 MOL      0.271176
     39 H19        -3.9550   -5.2760   -3.6120 hn        1 MOL      0.271176
     40 H20        -4.0050   -6.5740   -2.6010 hn        1 MOL      0.271176
     41 N4          3.8950   -4.2200   -1.2320 n         1 MOL     -0.157071
     42 C13         5.2700   -3.9970   -1.8100 c3        1 MOL     -0.188231
     43 C14         6.3600   -3.4100   -0.9580 c         1 MOL      0.368823
     44 O6          7.5540   -3.6010   -1.2750 o         1 MOL     -0.488173
     45 C15         5.2840   -3.2180   -3.1580 c3        1 MOL     -0.116419
     46 C16         4.6850   -1.8600   -3.1100 c         1 MOL      0.818850
     47 O7          4.7760   -1.0750   -2.1310 o         1 MOL     -0.769378
     48 O8          4.0030   -1.4750   -4.0940 o         1 MOL     -0.769378
     49 H21         3.5440   -3.4930   -0.6080 hn        1 MOL      0.157890
     50 H22         5.6910   -4.9680   -2.0820 h1        1 MOL      0.171674
     51 H23         4.8000   -3.8010   -3.9460 hc        1 MOL      0.069135
     52 H24         6.2890   -3.1160   -3.5570 hc        1 MOL      0.069135
     53 N5          6.0760   -2.8310    0.2560 n         1 MOL     -0.037256
     54 C17         7.0420   -2.2900    1.1990 c3        1 MOL     -0.372792
     55 C18         7.2510   -0.8160    1.0180 c         1 MOL      0.770672
     56 O9          7.8040   -0.1700    1.8870 o         1 MOL     -0.597345
     57 H25         5.1110   -2.6720    0.5160 hn        1 MOL      0.011370
     58 H26         7.9480   -2.8940    1.1460 h1        1 MOL      0.168858
     59 H27         6.5790   -2.3370    2.1880 h1        1 MOL      0.168858
     60 N6          6.7900   -0.1890   -0.0830 n         1 MOL     -0.626274
     61 C19         7.3240    1.1600   -0.3670 c3        1 MOL     -0.024569
     62 C20         6.2740    2.2410   -0.0780 c         1 MOL      0.771732
     63 O10         5.1660    2.1550   -0.6240 o         1 MOL     -0.671970
     64 C21         7.9080    1.0970   -1.7980 c3        1 MOL     -0.307923
     65 C22         9.1330    0.2540   -1.9950 c         1 MOL      0.610649
     66 N7          9.5240    0.0200   -3.2420 n         1 MOL     -0.689298
     67 O11         9.7350   -0.3000   -1.0010 o         1 MOL     -0.502896
     68 H28         6.4450   -0.6680   -0.9040 hn        1 MOL      0.467364
     69 H29         8.1400    1.4130    0.3100 h1        1 MOL      0.082349
     70 H30         8.0940    2.1170   -2.1520 hc        1 MOL      0.051277
     71 H31         7.1910    0.5610   -2.4060 hc        1 MOL      0.051277
     72 H32         8.9560    0.5980   -3.8470 hn        1 MOL      0.346388
     73 H33        10.4370   -0.3470   -3.4640 hn        1 MOL      0.346388
     74 N8          6.6800    3.3070    0.6140 n         1 MOL     -0.395529
     75 C23         5.9970    4.5410    0.7070 c3        1 MOL     -0.079650
     76 C24         4.5200    4.4600    1.3440 c         1 MOL      0.557079
     77 O12         4.4270    4.1520    2.5440 o         1 MOL     -0.489305
     78 H34         7.6260    3.2770    0.9750 hn        1 MOL      0.307630
     79 H35         5.9780    4.9770   -0.2930 h1        1 MOL      0.076554
     80 H36         6.5310    5.2740    1.3090 h1        1 MOL      0.076554
     81 N9          3.4640    4.8000    0.5790 n         1 MOL     -0.578766
     82 C25         2.0440    4.7790    1.0050 c3        1 MOL      0.144201
     83 C26         1.6850    3.2770    1.2260 c         1 MOL      0.368889
     84 O13         2.4380    2.3830    0.7780 o         1 MOL     -0.415410
     85 C27         1.0640    5.4040   -0.0280 c3        1 MOL     -0.291508
     86 C28         1.1000    6.9280   -0.3290 ca        1 MOL      0.058994
     87 C29         0.5710    7.8360    0.6170 ca        1 MOL     -0.122892
     88 C30         1.3040    7.3050   -1.6790 ca        1 MOL     -0.122892
     89 C31         0.3740    9.1740    0.1960 ca        1 MOL     -0.321404
     90 C32         1.0190    8.6210   -2.0930 ca        1 MOL     -0.321404
     91 C33         0.5220    9.5240   -1.1670 ca        1 MOL      0.411551
     92 O14         0.2100   10.7610   -1.5720 oh        1 MOL     -0.467098
     93 H37         3.6890    5.1170   -0.3610 hn        1 MOL      0.330334
     94 H38         1.8630    5.2490    1.9810 h1        1 MOL      0.088121
     95 H39         0.0270    5.2780    0.2940 hc        1 MOL      0.106799
     96 H40         1.1580    4.8730   -0.9720 hc        1 MOL      0.106799
     97 H41         0.3980    7.5310    1.6430 ha        1 MOL      0.133081
     98 H42         1.7390    6.5630   -2.3420 ha        1 MOL      0.133081
     99 H43         0.1190    9.9200    0.9400 ha        1 MOL      0.173487
    100 H44         1.1080    8.8870   -3.1440 ha        1 MOL      0.173487
    101 H45        -0.0650   11.2770   -0.8070 ho        1 MOL      0.355087
    102 N10         0.6680    3.1310    2.0600 n         1 MOL     -0.492691
    103 C34         0.1240    1.7360    2.3980 c3        1 MOL     -0.000414
    104 C35        -0.2330    0.8090    1.2020 c         1 MOL      0.452216
    105 O15         0.6550    0.3760    0.4770 o         1 MOL     -0.413330
    106 C36         0.9790    0.9940    3.4140 c3        1 MOL      0.406796
    107 C37         0.2240   -0.2190    3.9650 c3        1 MOL     -0.159423
    108 C38         1.3810    1.8570    4.6290 c3        1 MOL     -0.320104
    109 C39        -1.0930   -0.0780    4.6940 c3        1 MOL     -0.253569
    110 H46         0.2150    3.9790    2.3630 hn        1 MOL      0.327439
    111 H47        -0.8440    1.9080    2.8730 h1        1 MOL      0.039002
    112 H48         1.8960    0.6830    2.9120 hc        1 MOL      0.007877
    113 H49         0.9050   -0.7430    4.6420 hc        1 MOL      0.091775
    114 H50         0.0140   -0.8550    3.1040 hc        1 MOL      0.091775
    115 H51         1.9770    2.7200    4.3560 hc        1 MOL      0.073573
    116 H52         0.5420    2.1870    5.2370 hc        1 MOL      0.073573
    117 H53         1.9990    1.1200    5.1440 hc        1 MOL      0.073573
    118 H54        -1.4500   -1.0970    4.8100 hc        1 MOL      0.069845
    119 H55        -0.9950    0.3920    5.6740 hc        1 MOL      0.069845
    120 H56        -1.8390    0.4490    4.1110 hc        1 MOL      0.069845
    121 N11        -1.4600    0.4220    0.9200 n         1 MOL     -0.480899
    122 C40        -1.8690   -0.6050   -0.1100 c3        1 MOL      0.033239
    123 C41        -3.3740   -0.5580   -0.4120 c         1 MOL      0.489400
    124 O16        -3.8390   -1.3750   -1.2090 o         1 MOL     -0.526219
    125 C42        -1.5350   -2.0020    0.3840 c3        1 MOL      0.040178
    126 O17        -0.2450   -2.2490    0.3540 oh        1 MOL     -0.206662
    127 H57        -2.1760    0.8520    1.5000 hn        1 MOL      0.303528
    128 H58        -1.3300   -0.4170   -1.0420 h1        1 MOL      0.126942
    129 H59        -1.8910   -2.6950   -0.3830 h1        1 MOL      0.073426
    130 H60        -1.9810   -2.2210    1.3500 h1        1 MOL      0.073426
    131 H61         0.0990   -1.4170    0.6860 ho        1 MOL     -0.023283
    132 N12        -4.1530    0.2710    0.3190 n         1 MOL     -0.542611
    133 C43        -5.6620    0.4040    0.2020 c3        1 MOL      0.179346
    134 C44        -5.9760    1.2560   -1.0380 c         1 MOL      0.712444
    135 O18        -5.2840    2.1670   -1.4070 o         1 MOL     -0.595429
    136 C45        -6.2140    1.1110    1.4260 c3        1 MOL     -0.343946
    137 H62        -3.7610    1.0190    0.8690 hn        1 MOL      0.280768
    138 H63        -6.1380   -0.5750    0.1330 h1        1 MOL      0.080774
    139 H64        -6.0020    0.6160    2.3700 hc        1 MOL      0.107874
    140 H65        -5.7530    2.1010    1.3710 hc        1 MOL      0.107874
    141 H66        -7.3060    1.1190    1.3620 hc        1 MOL      0.107874
    142 N13        -7.1310    1.0870   -1.6270 n         1 MOL     -0.704566
    143 C46        -8.1980    0.0900   -1.4530 c3        1 MOL      0.449572
    144 C47        -9.4700    0.7090   -2.0800 c         1 MOL      0.444293
    145 O19        -9.4970    1.2630   -3.1790 o         1 MOL     -0.531587
    146 C48        -7.8270   -1.1340   -2.3000 c3        1 MOL     -0.331780
    147 H67        -7.2440    1.7020   -2.4290 hn        1 MOL      0.331660
    148 H68        -8.3070   -0.0980   -0.3860 h1        1 MOL     -0.049823
    149 H69        -7.8590   -0.8190   -3.3460 hc        1 MOL      0.087560
    150 H70        -6.8180   -1.5160   -2.1320 hc        1 MOL      0.087560
    151 H71        -8.4770   -1.9330   -1.9430 hc        1 MOL      0.087560
    152 N14       -10.5880    0.6030   -1.4150 n         1 MOL     -0.416155
    153 C49       -10.7600    0.0690   -0.0420 c3        1 MOL     -0.317945
    154 C50       -10.2510    1.0540    1.0750 c         1 MOL      0.476598
    155 O20        -9.7850    0.6700    2.1600 o         1 MOL     -0.490158
    156 C51       -12.2570   -0.1740    0.0760 c3        1 MOL      0.173626
    157 C52       -12.7600   -1.1710   -0.9880 c3        1 MOL     -0.165403
    158 C53       -13.6480   -2.1910   -0.4020 c         1 MOL      0.690312
    159 O21       -13.0410   -3.2650   -0.0980 o         1 MOL     -0.683578
    160 O22       -14.9090   -2.0260   -0.3530 o         1 MOL     -0.683578
    161 H72       -11.3840    1.1840   -1.6550 hn        1 MOL      0.331792
    162 H73       -10.3230   -0.9320    0.0420 h1        1 MOL      0.201655
    163 H74       -12.8020    0.7460   -0.1180 hc        1 MOL      0.001216
    164 H75       -12.5550   -0.4730    1.0820 hc        1 MOL      0.001216
    165 H76       -11.8790   -1.6870   -1.3670 hc        1 MOL      0.012454
    166 H77       -13.3480   -0.5670   -1.6860 hc        1 MOL      0.012454
    167 N15       -10.2650    2.3750    0.7580 n         1 MOL     -0.311547
    168 C54        -9.7080    3.3980    1.6150 c3        1 MOL     -0.146813
    169 H78        -8.8910    3.8990    1.0970 h1        1 MOL      0.086398
    170 H79       -10.4810    4.1250    1.8640 h1        1 MOL      0.086398
    171 H80        -9.3300    2.9400    2.5300 h1        1 MOL      0.086398
    172 H81       -10.6840    2.6470   -0.1150 hn        1 MOL      0.270747
    173 Ca1         3.0230    0.4750   -0.9840 Ca        1 MOL      1.705064
    174 O23         1.6070   -0.8520   -2.9470 oh        1 MOL     -0.822823
    175 H82         0.9170   -0.4660   -3.4710 ho        1 MOL      0.401808
    176 H83         2.3110   -1.0350   -3.5680 ho        1 MOL      0.401808
    177 O24         1.2840    2.2080   -2.1120 oh        1 MOL     -0.822823
    178 H84         0.3970    2.2460   -1.7420 ho        1 MOL      0.401808
    179 H85         1.2720    2.8440   -2.8270 ho        1 MOL      0.401808
    180 O25         3.6580    1.2840   -3.7400 oh        1 MOL     -0.822823
    181 H86         3.9310    0.4050   -3.9990 ho        1 MOL      0.401808
    182 H87         4.2390    1.8680   -4.2270 ho        1 MOL      0.401808
@<TRIPOS>BOND
     1    1    2 1   
     2    1    4 1   
     3    1    5 1   
     4    1    6 1   
     5    2    3 2   
     6    2    7 1   
     7    7    8 1   
     8    7   15 1   
     9    8    9 1   
    10    8   11 1   
    11    8   16 1   
    12    9   10 2   
    13    9   19 1   
    14   11   12 1   
    15   11   17 1   
    16   11   18 1   
    17   12   13 1   
    18   12   14 1   
    19   19   20 1   
    20   19   28 1   
    21   20   21 1   
    22   20   23 1   
    23   20   29 1   
    24   21   22 2   
    25   21   41 1   
    26   23   24 1   
    27   23   30 1   
    28   23   31 1   
    29   24   25 1   
    30   24   32 1   
    31   24   33 1   
    32   25   26 1   
    33   25   34 1   
    34   25   35 1   
    35   26   27 1   
    36   26   36 1   
    37   26   37 1   
    38   27   38 1   
    39   27   39 1   
    40   27   40 1   
    41   41   42 1   
    42   41   49 1   
    43   42   43 1   
    44   42   45 1   
    45   42   50 1   
    46   43   44 2   
    47   43   53 1   
    48   45   46 1   
    49   45   51 1   
    50   45   52 1   
    51   46   47 1   
    52   46   48 1   
    53   53   54 1   
    54   53   57 1   
    55   54   55 1   
    56   54   58 1   
    57   54   59 1   
    58   55   56 2   
    59   55   60 1   
    60   60   61 1   
    61   60   68 1   
    62   61   62 1   
    63   61   64 1   
    64   61   69 1   
    65   62   63 2   
    66   62   74 1   
    67   64   65 1   
    68   64   70 1   
    69   64   71 1   
    70   65   66 1   
    71   65   67 2   
    72   66   72 1   
    73   66   73 1   
    74   74   75 1   
    75   74   78 1   
    76   75   76 1   
    77   75   79 1   
    78   75   80 1   
    79   76   77 2   
    80   76   81 1   
    81   81   82 1   
    82   81   93 1   
    83   82   83 1   
    84   82   85 1   
    85   82   94 1   
    86   83   84 2   
    87   83  102 1   
    88   85   86 1   
    89   85   95 1   
    90   85   96 1   
    91   86   87 ar  
    92   86   88 ar  
    93   87   89 ar  
    94   87   97 1   
    95   88   90 ar  
    96   88   98 1   
    97   89   91 ar  
    98   89   99 1   
    99   90   91 ar  
   100   90  100 1   
   101   91   92 1   
   102   92  101 1   
   103  102  103 1   
   104  102  110 1   
   105  103  104 1   
   106  103  106 1   
   107  103  111 1   
   108  104  105 2   
   109  104  121 1   
   110  106  107 1   
   111  106  108 1   
   112  106  112 1   
   113  107  109 1   
   114  107  113 1   
   115  107  114 1   
   116  108  115 1   
   117  108  116 1   
   118  108  117 1   
   119  109  118 1   
   120  109  119 1   
   121  109  120 1   
   122  121  122 1   
   123  121  127 1   
   124  122  123 1   
   125  122  125 1   
   126  122  128 1   
   127  123  124 2   
   128  123  132 1   
   129  125  126 1   
   130  125  129 1   
   131  125  130 1   
   132  126  131 1   
   133  132  133 1   
   134  132  137 1   
   135  133  134 1   
   136  133  136 1   
   137  133  138 1   
   138  134  135 2   
   139  134  142 1   
   140  136  139 1   
   141  136  140 1   
   142  136  141 1   
   143  142  143 1   
   144  142  147 1   
   145  143  144 1   
   146  143  146 1   
   147  143  148 1   
   148  144  145 2   
   149  144  152 1   
   150  146  149 1   
   151  146  150 1   
   152  146  151 1   
   153  152  153 1   
   154  152  161 1   
   155  153  154 1   
   156  153  156 1   
   157  153  162 1   
   158  154  155 2   
   159  154  167 1   
   160  156  157 1   
   161  156  163 1   
   162  156  164 1   
   163  157  158 1   
   164  157  165 1   
   165  157  166 1   
   166  158  159 1   
   167  158  160 1   
   168  167  168 1   
   169  167  172 1   
   170  168  169 1   
   171  168  170 1   
   172  168  171 1   
   173  174  175 1   
   174  174  176 1   
   175  177  178 1   
   176  177  179 1   
   177  180  181 1   
   178  180  182 1   
@<TRIPOS>SUBSTRUCTURE
     1 MOL         1 TEMP              0 ****  ****    0 ROOT
