@<TRIPOS>MOLECULE
MOL
  178   175     1     0     0
SMALL
resp


@<TRIPOS>ATOM
      1 C1         -6.7020    7.3510    1.7070 c3        1 MOL     -0.427075
      2 C2         -7.6720    6.8360    0.7060 c         1 MOL      0.718043
      3 O1         -7.8900    7.3740   -0.3500 o         1 MOL     -0.575823
      4 H1         -6.2880    6.5170    2.2740 hc        1 MOL      0.099320
      5 H2         -5.8960    7.8780    1.1960 hc        1 MOL      0.099320
      6 H3         -7.2100    8.0350    2.3880 hc        1 MOL      0.099320
      7 N1         -8.3140    5.7220    1.1160 n         1 MOL     -0.515311
      8 C3         -9.3110    4.9750    0.3480 c3        1 MOL      0.197576
      9 C4         -8.6500    3.8080   -0.3500 c         1 MOL      0.477404
     10 O2         -9.2610    2.9940   -1.0750 o         1 MOL     -0.495369
     11 C5        -10.3430    4.3580    1.3220 c3        1 MOL     -0.266563
     12 C6        -11.6260    3.9050    0.6760 c         1 MOL      0.726825
     13 O3        -12.0330    2.7430    0.8810 o         1 MOL     -0.720588
     14 O4        -12.2740    4.6530   -0.0860 o         1 MOL     -0.720588
     15 H4         -8.0610    5.3330    2.0100 hn        1 MOL      0.272499
     16 H5         -9.8190    5.6700   -0.3190 h1        1 MOL      0.053981
     17 H6        -10.6380    5.0410    2.1090 hc        1 MOL      0.031613
     18 H7         -9.8140    3.5710    1.8600 hc        1 MOL      0.031613
     19 N2         -7.3240    3.6990   -0.2350 n         1 MOL     -0.494190
     20 C7         -6.4410    2.9090   -1.0860 c3        1 MOL      0.298498
     21 C8         -5.1490    2.3900   -0.3900 c         1 MOL      0.455579
     22 O5         -4.5610    3.1040    0.3990 o         1 MOL     -0.546418
     23 C9         -6.0080    3.7980   -2.3380 c3        1 MOL     -0.288263
     24 H8         -6.8600    4.2430    0.4770 hn        1 MOL      0.241679
     25 H9         -7.0040    2.0600   -1.4840 h1        1 MOL      0.009826
     26 H10        -5.5550    4.7310   -2.0340 hc        1 MOL      0.079849
     27 H11        -5.3250    3.1670   -2.9200 hc        1 MOL      0.079849
     28 H12        -6.9040    4.0130   -2.9240 hc        1 MOL      0.079849
     29 N3         -4.6620    1.1600   -0.5400 n         1 MOL     -0.353659
     30 C10        -5.2520    0.0380   -1.3020 c3        1 MOL     -0.044626
     31 C11        -5.4410   -1.2680   -0.4570 c         1 MOL      0.442165
     32 O6         -4.9330   -1.4890    0.6470 o         1 MOL     -0.495659
     33 C12        -4.4880   -0.2290   -2.6400 c3        1 MOL     -0.192551
     34 C13        -2.9580   -0.3710   -2.4930 c         1 MOL      0.743373
     35 O7         -2.5380   -0.8480   -1.4120 o         1 MOL     -0.718570
     36 O8         -2.1370   -0.1510   -3.4270 o         1 MOL     -0.718570
     37 H13        -3.8570    0.9310    0.0360 hn        1 MOL      0.276570
     38 H14        -6.2830    0.2510   -1.5930 h1        1 MOL      0.082932
     39 H15        -4.6670    0.6130   -3.3060 hc        1 MOL      0.047412
     40 H16        -4.8280   -1.1310   -3.1420 hc        1 MOL      0.047412
     41 N4         -6.3260   -2.1230   -0.9750 n         1 MOL     -0.328391
     42 C14        -6.8320   -3.4030   -0.4260 c3        1 MOL      0.052586
     43 C15        -6.5750   -4.5280   -1.3810 c         1 MOL      0.553572
     44 O9         -7.5910   -5.0550   -1.8530 o         1 MOL     -0.554414
     45 H17        -6.8400   -1.7800   -1.7670 hn        1 MOL      0.270935
     46 H18        -7.9200   -3.3390   -0.3380 h1        1 MOL      0.049953
     47 H19        -6.3170   -3.5690    0.5250 h1        1 MOL      0.049953
     48 N5         -5.3560   -4.9760   -1.7590 n         1 MOL     -0.620544
     49 C16        -4.0810   -4.5400   -1.2120 c3        1 MOL      0.197730
     50 C17        -3.8210   -5.2170    0.1990 c         1 MOL      0.516270
     51 O10        -4.0030   -6.3760    0.4530 o         1 MOL     -0.570105
     52 C18        -3.0370   -4.7410   -2.1910 c3        1 MOL     -0.226531
     53 C19        -1.7550   -3.9480   -1.9680 c         1 MOL      0.595223
     54 N6         -0.9760   -3.7130   -3.0370 n         1 MOL     -0.576860
     55 O11        -1.4430   -3.4920   -0.9250 o         1 MOL     -0.599210
     56 H20        -5.2970   -5.7680   -2.3880 hn        1 MOL      0.345228
     57 H21        -4.1760   -3.4610   -1.0740 h1        1 MOL      0.084714
     58 H22        -3.5030   -4.3960   -3.1220 hc        1 MOL      0.061027
     59 H23        -2.8310   -5.7970   -2.3150 hc        1 MOL      0.061027
     60 H24        -1.1100   -4.2550   -3.8800 hn        1 MOL      0.290313
     61 H25        -0.0860   -3.3240   -2.7710 hn        1 MOL      0.290313
     62 N7         -3.4280   -4.3640    1.0780 n         1 MOL     -0.029720
     63 C20        -3.1240   -4.7170    2.4710 c3        1 MOL     -0.492452
     64 C21        -1.6950   -5.0770    2.8080 c         1 MOL      0.753130
     65 O12        -1.4740   -5.4640    3.9200 o         1 MOL     -0.600591
     66 H26        -3.4350   -3.3690    0.9370 hn        1 MOL      0.167807
     67 H27        -3.7110   -5.5620    2.8570 h1        1 MOL      0.154445
     68 H28        -3.3180   -3.8240    3.0630 h1        1 MOL      0.154445
     69 N8         -0.7740   -4.9940    1.8510 n         1 MOL     -0.368648
     70 C22         0.6230   -5.1920    2.0710 c3        1 MOL      0.009574
     71 C23         1.4280   -3.8600    1.9730 c         1 MOL      0.465918
     72 O13         0.9590   -2.8050    1.4780 o         1 MOL     -0.586895
     73 C24         1.2080   -6.3310    1.1910 c3        1 MOL      0.451113
     74 C25         0.8440   -7.6930    1.6280 c3        1 MOL     -0.477978
     75 O14         0.6850   -6.1520   -0.0910 oh        1 MOL     -0.614899
     76 H29        -1.0870   -4.9410    0.8900 hn        1 MOL      0.220488
     77 H30         0.7850   -5.4980    3.0950 h1        1 MOL      0.019977
     78 H31         2.3020   -6.3210    1.1970 h1        1 MOL     -0.003585
     79 H32         1.1450   -5.4640   -0.5800 ho        1 MOL      0.380833
     80 H33         1.2710   -7.8340    2.6230 hc        1 MOL      0.113638
     81 H34        -0.2460   -7.7620    1.6710 hc        1 MOL      0.113638
     82 H35         1.1460   -8.4580    0.9110 hc        1 MOL      0.113638
     83 N9          2.7220   -3.8600    2.3170 n         1 MOL     -0.315444
     84 C26         3.5750   -2.7130    2.0510 c3        1 MOL      0.136685
     85 C27         4.3410   -3.1520    0.8270 c         1 MOL      0.205893
     86 O15         5.0470   -4.1930    0.8000 o         1 MOL     -0.521502
     87 C28         4.3500   -2.3200    3.3230 c3        1 MOL      0.213113
     88 C29         4.9460   -0.9440    3.0190 c3        1 MOL      0.106799
     89 C30         3.5730   -2.3620    4.6940 c3        1 MOL     -0.440776
     90 C31         6.0630   -0.5160    3.9610 c3        1 MOL     -0.364346
     91 H36         3.1200   -4.7570    2.5950 hn        1 MOL      0.228489
     92 H37         2.9460   -1.8730    1.7640 h1        1 MOL      0.018476
     93 H38         5.1740   -3.0340    3.3300 hc        1 MOL     -0.025594
     94 H39         4.2370   -0.1180    3.0930 hc        1 MOL      0.027308
     95 H40         5.4140   -0.9470    2.0360 hc        1 MOL      0.027308
     96 H41         3.7090   -3.3890    5.0430 hc        1 MOL      0.106127
     97 H42         3.9170   -1.6560    5.4450 hc        1 MOL      0.106127
     98 H43         2.5000   -2.2330    4.6120 hc        1 MOL      0.106127
     99 H44         6.4960    0.3250    3.4180 hc        1 MOL      0.073857
    100 H45         5.6290   -0.2340    4.9260 hc        1 MOL      0.073857
    101 H46         6.8320   -1.2880    4.0210 hc        1 MOL      0.073857
    102 N10         4.1500   -2.3500   -0.2200 n         1 MOL     -0.142804
    103 C32         4.6580   -2.5440   -1.5990 c3        1 MOL      0.032956
    104 C33         5.6050   -1.4070   -2.0700 c         1 MOL      0.410632
    105 O16         5.9780   -1.3910   -3.2370 o         1 MOL     -0.539444
    106 C34         3.4910   -2.6770   -2.6100 c3        1 MOL      0.027486
    107 C35         2.1310   -3.1550   -2.0420 c         1 MOL      0.727216
    108 O17         2.0420   -4.3560   -1.6490 o         1 MOL     -0.713811
    109 O18         1.2220   -2.3370   -1.9640 o         1 MOL     -0.713811
    110 H47         3.5860   -1.5180   -0.1000 hn        1 MOL      0.186592
    111 H48         5.1240   -3.5240   -1.7300 h1        1 MOL      0.095940
    112 H49         3.7670   -3.3880   -3.3860 hc        1 MOL     -0.012535
    113 H50         3.2210   -1.7750   -3.1460 hc        1 MOL     -0.012535
    114 N11         5.9030   -0.4290   -1.2310 n         1 MOL     -0.349023
    115 C36         6.7880    0.6330   -1.4870 c3        1 MOL      0.326193
    116 C37         6.4210    1.8690   -0.6330 c         1 MOL      0.295278
    117 O19         6.2440    1.7800    0.5790 o         1 MOL     -0.497936
    118 C38         8.2530    0.1450   -1.2310 c3        1 MOL     -0.300526
    119 C39         9.1600    1.3810   -1.4330 ca        1 MOL      0.095075
    120 C40         9.6640    1.9990   -0.2340 ca        1 MOL     -0.153923
    121 C41         9.4170    1.9110   -2.6960 ca        1 MOL     -0.153923
    122 C42        10.4120    3.2310   -0.3100 ca        1 MOL     -0.153514
    123 C43        10.1880    3.1120   -2.7340 ca        1 MOL     -0.153514
    124 C44        10.6080    3.7740   -1.5730 ca        1 MOL     -0.078232
    125 H51         5.5520   -0.4150   -0.2760 hn        1 MOL      0.191253
    126 H52         6.8350    0.7910   -2.5620 h1        1 MOL      0.006413
    127 H53         8.5520   -0.6930   -1.8720 hc        1 MOL      0.114389
    128 H54         8.3150   -0.2160   -0.2040 hc        1 MOL      0.114389
    129 H55         9.5200    1.4710    0.6920 ha        1 MOL      0.130610
    130 H56         8.9880    1.4510   -3.5720 ha        1 MOL      0.130610
    131 H57        10.7070    3.8200    0.5420 ha        1 MOL      0.123212
    132 H58        10.2320    3.6560   -3.6650 ha        1 MOL      0.123212
    133 H59        10.9930    4.7690   -1.7150 ha        1 MOL      0.091181
    134 N12         6.4130    3.1110   -1.2110 n         1 MOL      0.048689
    135 C45         6.5710    4.3930   -0.5410 c3        1 MOL     -0.237125
    136 C46         5.3370    4.8940    0.2610 c         1 MOL      0.366535
    137 O20         5.2550    6.1180    0.5740 o         1 MOL     -0.503325
    138 C47         7.0870    5.3000   -1.6330 c3        1 MOL      0.265965
    139 C48         6.3210    4.7900   -2.8310 c3        1 MOL     -0.093414
    140 C49         6.3400    3.2850   -2.6390 c3        1 MOL     -0.158658
    141 H60         7.4940    4.3940    0.0410 h1        1 MOL      0.117186
    142 H61         6.9510    6.3790   -1.5150 hc        1 MOL     -0.039000
    143 H62         8.1420    5.0290   -1.6680 hc        1 MOL     -0.039000
    144 H63         5.3150    5.2010   -2.7860 hc        1 MOL      0.042112
    145 H64         6.8950    5.1180   -3.6970 hc        1 MOL      0.042112
    146 H65         5.4000    2.8150   -2.9190 h1        1 MOL      0.071516
    147 H66         7.1670    2.8020   -3.1460 h1        1 MOL      0.071516
    148 N13         4.3650    4.0170    0.5980 n         1 MOL     -0.155487
    149 C50         2.9830    4.3570    1.1730 c3        1 MOL     -0.245490
    150 C51         3.0400    4.8580    2.6460 c         1 MOL      0.468974
    151 O21         2.1680    5.6490    3.1470 o         1 MOL     -0.532148
    152 C52         2.0090    3.2010    0.9600 c3        1 MOL      0.095649
    153 C53         2.4590    1.9370    1.6650 c3        1 MOL      0.129767
    154 C54         1.8030    0.7280    1.0560 c         1 MOL      0.466929
    155 O22         2.2300    0.1470    0.0620 o         1 MOL     -0.688652
    156 O23         0.7650    0.2680    1.6370 o         1 MOL     -0.688652
    157 H67         4.5910    3.0570    0.3750 hn        1 MOL      0.189360
    158 H68         2.5530    5.1900    0.6270 h1        1 MOL      0.145558
    159 H69         1.9600    3.0350   -0.1150 hc        1 MOL      0.012831
    160 H70         1.0400    3.5460    1.3060 hc        1 MOL      0.012831
    161 H71         2.2570    2.0460    2.7340 hc        1 MOL     -0.023772
    162 H72         3.5200    1.7380    1.6000 hc        1 MOL     -0.023772
    163 N14         4.1080    4.4750    3.3320 n         1 MOL     -0.138704
    164 C55         4.4230    4.9720    4.6440 c3        1 MOL     -0.200605
    165 H73         4.9410    4.1990    5.2110 h1        1 MOL      0.087375
    166 H74         5.0630    5.8490    4.5570 h1        1 MOL      0.087375
    167 H75         3.5020    5.2450    5.1610 h1        1 MOL      0.087375
    168 H76         4.6500    3.7040    2.9630 hn        1 MOL      0.191393
    169 Ca1        -0.2700   -1.1930   -0.2980 Ca        1 MOL      1.784331
    170 O24         0.2470    0.0350   -2.7380 oh        1 MOL     -0.827768
    171 H77         0.8910    0.3160   -3.3870 ho        1 MOL      0.396152
    172 H78        -0.5940    0.1450   -3.1680 ho        1 MOL      0.396152
    173 O25        -2.3840   -1.5850    1.4570 oh        1 MOL     -0.827768
    174 H79        -3.2140   -1.3230    1.0590 ho        1 MOL      0.396152
    175 H80        -2.2340   -0.9480    2.1560 ho        1 MOL      0.396152
    176 O26        -1.0730    1.3410   -0.3260 oh        1 MOL     -0.827768
    177 H81        -1.3770    1.9500    0.3440 ho        1 MOL      0.396152
    178 H82        -1.0800    1.8390   -1.1410 ho        1 MOL      0.396152
@<TRIPOS>BOND
     1    1    2 1   
     2    1    4 1   
     3    1    5 1   
     4    1    6 1   
     5    2    3 2   
     6    2    7 1   
     7    7    8 1   
     8    7   15 1   
     9    8    9 1   
    10    8   11 1   
    11    8   16 1   
    12    9   10 2   
    13    9   19 1   
    14   11   12 1   
    15   11   17 1   
    16   11   18 1   
    17   12   13 1   
    18   12   14 1   
    19   19   20 1   
    20   19   24 1   
    21   20   21 1   
    22   20   23 1   
    23   20   25 1   
    24   21   22 2   
    25   21   29 1   
    26   23   26 1   
    27   23   27 1   
    28   23   28 1   
    29   29   30 1   
    30   29   37 1   
    31   30   31 1   
    32   30   33 1   
    33   30   38 1   
    34   31   32 2   
    35   31   41 1   
    36   33   34 1   
    37   33   39 1   
    38   33   40 1   
    39   34   35 1   
    40   34   36 1   
    41   41   42 1   
    42   41   45 1   
    43   42   43 1   
    44   42   46 1   
    45   42   47 1   
    46   43   44 2   
    47   43   48 1   
    48   48   49 1   
    49   48   56 1   
    50   49   50 1   
    51   49   52 1   
    52   49   57 1   
    53   50   51 2   
    54   50   62 1   
    55   52   53 1   
    56   52   58 1   
    57   52   59 1   
    58   53   54 1   
    59   53   55 2   
    60   54   60 1   
    61   54   61 1   
    62   62   63 1   
    63   62   66 1   
    64   63   64 1   
    65   63   67 1   
    66   63   68 1   
    67   64   65 2   
    68   64   69 1   
    69   69   70 1   
    70   69   76 1   
    71   70   71 1   
    72   70   73 1   
    73   70   77 1   
    74   71   72 2   
    75   71   83 1   
    76   73   74 1   
    77   73   75 1   
    78   73   78 1   
    79   74   80 1   
    80   74   81 1   
    81   74   82 1   
    82   75   79 1   
    83   83   84 1   
    84   83   91 1   
    85   84   85 1   
    86   84   87 1   
    87   84   92 1   
    88   85   86 2   
    89   85  102 1   
    90   87   88 1   
    91   87   89 1   
    92   87   93 1   
    93   88   90 1   
    94   88   94 1   
    95   88   95 1   
    96   89   96 1   
    97   89   97 1   
    98   89   98 1   
    99   90   99 1   
   100   90  100 1   
   101   90  101 1   
   102  102  103 1   
   103  102  110 1   
   104  103  104 1   
   105  103  106 1   
   106  103  111 1   
   107  104  105 2   
   108  104  114 1   
   109  106  107 1   
   110  106  112 1   
   111  106  113 1   
   112  107  108 1   
   113  107  109 1   
   114  114  115 1   
   115  114  125 1   
   116  115  116 1   
   117  115  118 1   
   118  115  126 1   
   119  116  117 2   
   120  116  134 1   
   121  118  119 1   
   122  118  127 1   
   123  118  128 1   
   124  119  120 ar  
   125  119  121 ar  
   126  120  122 ar  
   127  120  129 1   
   128  121  123 ar  
   129  121  130 1   
   130  122  124 ar  
   131  122  131 1   
   132  123  124 ar  
   133  123  132 1   
   134  124  133 1   
   135  134  135 1   
   136  134  140 1   
   137  135  136 1   
   138  135  138 1   
   139  135  141 1   
   140  136  137 2   
   141  136  148 1   
   142  138  139 1   
   143  138  142 1   
   144  138  143 1   
   145  139  140 1   
   146  139  144 1   
   147  139  145 1   
   148  140  146 1   
   149  140  147 1   
   150  148  149 1   
   151  148  157 1   
   152  149  150 1   
   153  149  152 1   
   154  149  158 1   
   155  150  151 2   
   156  150  163 1   
   157  152  153 1   
   158  152  159 1   
   159  152  160 1   
   160  153  154 1   
   161  153  161 1   
   162  153  162 1   
   163  154  155 1   
   164  154  156 1   
   165  163  164 1   
   166  163  168 1   
   167  164  165 1   
   168  164  166 1   
   169  164  167 1   
   170  170  171 1   
   171  170  172 1   
   172  173  174 1   
   173  173  175 1   
   174  176  177 1   
   175  176  178 1   
@<TRIPOS>SUBSTRUCTURE
     1 MOL         1 TEMP              0 ****  ****    0 ROOT
