@<TRIPOS>MOLECULE
MOL
  178   175     1     0     0
SMALL
resp


@<TRIPOS>ATOM
      1 C1          0.7130    6.6670   -1.1580 c3        1 MOL     -0.494369
      2 C2          2.1310    6.1920   -0.7970 c         1 MOL      0.753881
      3 O1          2.5420    6.3320    0.3490 o         1 MOL     -0.604386
      4 H1          0.6990    7.7550   -1.2170 hc        1 MOL      0.126839
      5 H2          0.4230    6.2470   -2.1210 hc        1 MOL      0.126839
      6 H3          0.0120    6.3360   -0.3910 hc        1 MOL      0.126839
      7 N1          2.9500    5.6700   -1.7180 n         1 MOL     -0.660184
      8 C3          4.2750    5.1060   -1.5560 c3        1 MOL      0.315417
      9 C4          4.1860    4.0500   -0.4790 c         1 MOL      0.632879
     10 O2          3.3730    3.0750   -0.5650 o         1 MOL     -0.637198
     11 C5          4.8740    4.6220   -2.8720 c3        1 MOL     -0.260684
     12 C6          6.3720    4.1700   -2.7150 c         1 MOL      0.703733
     13 O3          6.7660    3.0880   -3.2360 o         1 MOL     -0.719340
     14 O4          7.0930    4.8700   -1.9840 o         1 MOL     -0.719340
     15 H4          2.4410    5.5330   -2.5770 hn        1 MOL      0.297987
     16 H5          4.9170    5.8880   -1.1500 h1        1 MOL     -0.002172
     17 H6          4.7070    5.3940   -3.6210 hc        1 MOL      0.028163
     18 H7          4.3250    3.7340   -3.2090 hc        1 MOL      0.028163
     19 N2          5.0730    4.1070    0.5330 n         1 MOL     -0.470716
     20 C7          5.2720    3.1450    1.6540 c3        1 MOL      0.347142
     21 C8          3.9670    3.0850    2.5420 c         1 MOL      0.399145
     22 O5          3.1490    3.9550    2.5070 o         1 MOL     -0.506917
     23 C9          6.5090    3.5190    2.4510 c3        1 MOL     -0.367024
     24 H8          5.6300    4.9510    0.5630 hn        1 MOL      0.274885
     25 H9          5.4650    2.1930    1.1660 h1        1 MOL      0.042524
     26 H10         6.3170    4.4740    2.9240 hc        1 MOL      0.089469
     27 H11         6.6240    2.7480    3.2140 hc        1 MOL      0.089469
     28 H12         7.3830    3.6130    1.8090 hc        1 MOL      0.089469
     29 N3          3.7680    2.0460    3.3560 n         1 MOL     -0.318526
     30 C10         4.5640    0.8270    3.6240 c3        1 MOL      0.088012
     31 C11         4.5330   -0.1180    2.3720 c         1 MOL      0.427594
     32 O6          3.5430   -0.1950    1.6070 o         1 MOL     -0.491142
     33 C12         4.0590   -0.0080    4.8050 c3        1 MOL     -0.266758
     34 C13         2.5390   -0.1430    5.0300 c         1 MOL      0.748763
     35 O7          1.7340    0.1590    4.1300 o         1 MOL     -0.685314
     36 O8          2.1750   -0.4750    6.1730 o         1 MOL     -0.685314
     37 H13         2.9120    2.2110    3.8650 hn        1 MOL      0.254226
     38 H14         5.5900    1.0880    3.8740 h1        1 MOL      0.044883
     39 H15         4.3640    0.5710    5.6800 hc        1 MOL      0.045741
     40 H16         4.5660   -0.9610    4.8620 hc        1 MOL      0.045741
     41 N4          5.6400   -0.8470    2.0640 n         1 MOL     -0.550361
     42 C14         5.9710   -1.4940    0.7660 c3        1 MOL      0.215277
     43 C15         6.9010   -0.6240   -0.1010 c         1 MOL      0.474153
     44 O9          7.2140    0.5330    0.1540 o         1 MOL     -0.489157
     45 H17         6.3660   -0.8340    2.7690 hn        1 MOL      0.296058
     46 H18         5.0310   -1.6180    0.2150 h1        1 MOL      0.037464
     47 H19         6.4190   -2.4790    0.8680 h1        1 MOL      0.037464
     48 N5          7.5630   -1.2680   -1.0410 n         1 MOL     -0.446464
     49 C16         7.3190   -2.6140   -1.7320 c3        1 MOL     -0.127967
     50 C17         6.0710   -2.7500   -2.5650 c         1 MOL      0.623526
     51 O10         5.7220   -3.8990   -2.9400 o         1 MOL     -0.557045
     52 C18         8.4860   -2.8880   -2.5790 c3        1 MOL     -0.407639
     53 C19         9.7630   -3.0820   -1.8110 c         1 MOL      0.726531
     54 N6          9.8430   -4.0940   -0.9480 n         1 MOL     -0.822566
     55 O11        10.6770   -2.2540   -1.9110 o         1 MOL     -0.547316
     56 H20         8.3390   -0.7490   -1.4250 hn        1 MOL      0.338674
     57 H21         7.0770   -3.4540   -1.0740 h1        1 MOL      0.090833
     58 H22         8.6830   -2.1220   -3.3340 hc        1 MOL      0.140124
     59 H23         8.2060   -3.8070   -3.0760 hc        1 MOL      0.140124
     60 H24         9.0300   -4.6510   -0.7060 hn        1 MOL      0.369821
     61 H25        10.6380   -4.2160   -0.3280 hn        1 MOL      0.369821
     62 N7          5.4260   -1.6290   -2.8110 n         1 MOL     -0.305654
     63 C20         4.1510   -1.5200   -3.4850 c3        1 MOL     -0.087101
     64 C21         2.9500   -2.3480   -2.9340 c         1 MOL      0.501268
     65 O12         1.9930   -2.5800   -3.6450 o         1 MOL     -0.521850
     66 H26         5.8540   -0.7470   -2.5620 hn        1 MOL      0.301587
     67 H27         4.3030   -1.8420   -4.5200 h1        1 MOL      0.081757
     68 H28         3.9100   -0.4590   -3.5250 h1        1 MOL      0.081757
     69 N8          3.0570   -2.7560   -1.6730 n         1 MOL     -0.099596
     70 C22         2.1240   -3.7650   -1.0850 c3        1 MOL     -0.237203
     71 C23         0.8950   -3.0800   -0.6120 c         1 MOL      0.810929
     72 O13         0.9340   -1.8820   -0.2880 o         1 MOL     -0.631694
     73 C24         2.7250   -4.5720    0.0750 c3        1 MOL      0.327353
     74 C25         3.7350   -5.5980   -0.4220 c3        1 MOL     -0.168200
     75 O14         3.4140   -3.7230    0.9490 oh        1 MOL     -0.589382
     76 H29         3.7370   -2.4060   -1.0240 hn        1 MOL      0.055487
     77 H30         1.8450   -4.5430   -1.8050 h1        1 MOL      0.123568
     78 H31         1.9840   -5.1110    0.6630 h1        1 MOL      0.013999
     79 H32         3.9980   -4.2250    1.5260 ho        1 MOL      0.379432
     80 H33         3.3080   -6.0750   -1.3030 hc        1 MOL      0.033769
     81 H34         4.6560   -5.0650   -0.6740 hc        1 MOL      0.033769
     82 H35         3.8830   -6.4020    0.3010 hc        1 MOL      0.033769
     83 N9         -0.2730   -3.7690   -0.6920 n         1 MOL     -0.544865
     84 C26        -1.6240   -3.1640   -0.5970 c3        1 MOL      0.133084
     85 C27        -2.3250   -3.3270    0.7640 c         1 MOL      0.329764
     86 O15        -2.1960   -4.3750    1.3630 o         1 MOL     -0.562529
     87 C28        -2.4680   -3.5210   -1.8260 c3        1 MOL      0.152548
     88 C29        -3.7490   -2.6480   -2.0260 c3        1 MOL      0.129862
     89 C30        -1.6480   -3.6360   -3.1430 c3        1 MOL     -0.225410
     90 C31        -4.8020   -3.0270   -3.0450 c3        1 MOL     -0.197514
     91 H36        -0.2290   -4.7020   -1.0690 hn        1 MOL      0.256279
     92 H37        -1.4260   -2.0940   -0.6550 h1        1 MOL      0.026864
     93 H38        -2.9600   -4.4680   -1.6070 hc        1 MOL     -0.031611
     94 H39        -3.4100   -1.6320   -2.2430 hc        1 MOL     -0.064264
     95 H40        -4.2910   -2.5860   -1.0820 hc        1 MOL     -0.064264
     96 H41        -0.6790   -4.1310   -3.1220 hc        1 MOL      0.049079
     97 H42        -2.2460   -4.1860   -3.8650 hc        1 MOL      0.049079
     98 H43        -1.4550   -2.6390   -3.5420 hc        1 MOL      0.049079
     99 H44        -5.7140   -2.4240   -2.9780 hc        1 MOL      0.035078
    100 H45        -4.4190   -3.1210   -4.0520 hc        1 MOL      0.035078
    101 H46        -5.0720   -4.0530   -2.7870 hc        1 MOL      0.035078
    102 N10        -2.9370   -2.3360    1.2780 n         1 MOL      0.008942
    103 C32        -3.8480   -2.5090    2.4500 c3        1 MOL      0.071408
    104 C33        -5.3010   -2.2840    2.0870 c         1 MOL      0.411390
    105 O16        -6.1150   -2.8960    2.7710 o         1 MOL     -0.534332
    106 C34        -3.4440   -1.5920    3.5770 c3        1 MOL     -0.173077
    107 C35        -1.9330   -1.4710    3.8790 c         1 MOL      0.611451
    108 O17        -1.2520   -0.5200    3.4030 o         1 MOL     -0.667616
    109 O18        -1.3100   -2.3750    4.5810 o         1 MOL     -0.667616
    110 H47        -2.9120   -1.4450    0.7980 hn        1 MOL      0.017170
    111 H48        -3.7650   -3.5310    2.8390 h1        1 MOL      0.066398
    112 H49        -4.1270   -1.7020    4.4170 hc        1 MOL      0.034891
    113 H50        -3.7440   -0.6330    3.1570 hc        1 MOL      0.034891
    114 N11        -5.5230   -1.4350    1.0640 n         1 MOL     -0.476007
    115 C36        -6.9030   -0.9160    0.7240 c3        1 MOL      0.214439
    116 C37        -6.8500    0.5300    0.2490 c         1 MOL      0.232878
    117 O19        -7.1520    0.7270   -0.9160 o         1 MOL     -0.486685
    118 C38        -7.5350   -1.8900   -0.1910 c3        1 MOL     -0.210947
    119 C39        -8.9720   -1.6930   -0.6230 ca        1 MOL      0.159355
    120 C40        -9.9620   -1.2280    0.2670 ca        1 MOL     -0.183032
    121 C41        -9.3380   -1.9460   -1.9360 ca        1 MOL     -0.183032
    122 C42       -11.2900   -1.0390   -0.1160 ca        1 MOL     -0.057741
    123 C43       -10.6420   -1.7320   -2.3860 ca        1 MOL     -0.057741
    124 C44       -11.6710   -1.3510   -1.5020 ca        1 MOL     -0.237858
    125 H51        -4.7620   -0.8600    0.7240 hn        1 MOL      0.472211
    126 H52        -7.5840   -0.9630    1.5660 h1        1 MOL      0.046999
    127 H53        -7.5380   -2.8990    0.2210 hc        1 MOL      0.091178
    128 H54        -6.9080   -1.9760   -1.0890 hc        1 MOL      0.091178
    129 H55        -9.6070   -1.0420    1.2690 ha        1 MOL      0.101448
    130 H56        -8.5730   -2.3000   -2.6100 ha        1 MOL      0.101448
    131 H57       -11.9910   -0.5730    0.5610 ha        1 MOL      0.091910
    132 H58       -10.9260   -2.0040   -3.3870 ha        1 MOL      0.091910
    133 H59       -12.6540   -1.1000   -1.8740 ha        1 MOL      0.129222
    134 N12        -6.5480    1.5250    1.0590 n         1 MOL      0.043517
    135 C45        -6.7190    2.9850    0.6510 c3        1 MOL      0.006457
    136 C46        -5.8450    3.4540   -0.5840 c         1 MOL      0.280637
    137 O20        -6.0840    4.5010   -1.1630 o         1 MOL     -0.469060
    138 C47        -6.6210    3.7780    1.9300 c3        1 MOL     -0.163011
    139 C48        -6.9410    2.7080    2.9830 c3        1 MOL      0.044220
    140 C49        -6.3970    1.3990    2.4640 c3        1 MOL     -0.015246
    141 H60        -7.7550    3.0990    0.3290 h1        1 MOL      0.082194
    142 H61        -5.5970    4.1210    2.1000 hc        1 MOL      0.073237
    143 H62        -7.3180    4.6130    1.9190 hc        1 MOL      0.073237
    144 H63        -6.5590    2.9720    3.9750 hc        1 MOL     -0.001114
    145 H64        -8.0230    2.6850    3.0620 hc        1 MOL     -0.001114
    146 H65        -5.3390    1.2640    2.6970 h1        1 MOL      0.030281
    147 H66        -7.0230    0.6310    2.9110 h1        1 MOL      0.030281
    148 N13        -4.8780    2.6130   -0.9810 n         1 MOL     -0.073438
    149 C50        -4.1350    2.8060   -2.2800 c3        1 MOL     -0.280481
    150 C51        -5.1740    2.7060   -3.3420 c         1 MOL      0.517655
    151 O21        -5.4320    3.7250   -3.9750 o         1 MOL     -0.537722
    152 C52        -3.0340    1.7140   -2.4280 c3        1 MOL      0.002972
    153 C53        -2.1520    1.7690   -1.1870 c3        1 MOL     -0.071815
    154 C54        -2.4940    0.6250   -0.2100 c         1 MOL      0.729142
    155 O22        -1.4920    0.0410    0.3050 o         1 MOL     -0.715510
    156 O23        -3.6560    0.4820    0.1730 o         1 MOL     -0.715510
    157 H67        -4.6860    1.7930   -0.4320 hn        1 MOL      0.150805
    158 H68        -3.6410    3.7750   -2.3240 h1        1 MOL      0.139987
    159 H69        -2.3520    1.9040   -3.2550 hc        1 MOL      0.010474
    160 H70        -3.5460    0.7510   -2.5040 hc        1 MOL      0.010474
    161 H71        -2.2120    2.7170   -0.6570 hc        1 MOL      0.039149
    162 H72        -1.1290    1.6860   -1.5260 hc        1 MOL      0.039149
    163 N14        -5.8830    1.5920   -3.4200 n         1 MOL     -0.189178
    164 C55        -6.8540    1.2530   -4.5040 c3        1 MOL     -0.448676
    165 H73        -7.6630    1.9820   -4.5080 h1        1 MOL      0.153055
    166 H74        -6.3450    1.2720   -5.4680 h1        1 MOL      0.153055
    167 H75        -7.2620    0.2570   -4.3290 h1        1 MOL      0.153055
    168 H76        -5.7460    0.9240   -2.6840 hn        1 MOL      0.286129
    169 Ca1         0.7110   -0.0810    1.7590 Ca        1 MOL      1.786104
    170 O24         0.5980    2.4470    2.3780 oh        1 MOL     -0.956937
    171 H77         1.3210    3.0460    2.1920 ho        1 MOL      0.449072
    172 H78        -0.0490    2.9830    2.8300 ho        1 MOL      0.449072
    173 O25         1.6060   -2.4840    2.6840 oh        1 MOL     -0.956937
    174 H79         1.6480   -2.8750    3.5550 ho        1 MOL      0.449072
    175 H80         2.1770   -3.0320    2.1520 ho        1 MOL      0.449072
    176 O26         1.5460    1.3200   -0.3430 oh        1 MOL     -0.956937
    177 H81         2.1780    2.0320   -0.2340 ho        1 MOL      0.449072
    178 H82         1.5060    1.1850   -1.2940 ho        1 MOL      0.449072
@<TRIPOS>BOND
     1    1    2 1   
     2    1    4 1   
     3    1    5 1   
     4    1    6 1   
     5    2    3 2   
     6    2    7 1   
     7    7    8 1   
     8    7   15 1   
     9    8    9 1   
    10    8   11 1   
    11    8   16 1   
    12    9   10 2   
    13    9   19 1   
    14   11   12 1   
    15   11   17 1   
    16   11   18 1   
    17   12   13 1   
    18   12   14 1   
    19   19   20 1   
    20   19   24 1   
    21   20   21 1   
    22   20   23 1   
    23   20   25 1   
    24   21   22 2   
    25   21   29 1   
    26   23   26 1   
    27   23   27 1   
    28   23   28 1   
    29   29   30 1   
    30   29   37 1   
    31   30   31 1   
    32   30   33 1   
    33   30   38 1   
    34   31   32 2   
    35   31   41 1   
    36   33   34 1   
    37   33   39 1   
    38   33   40 1   
    39   34   35 1   
    40   34   36 1   
    41   41   42 1   
    42   41   45 1   
    43   42   43 1   
    44   42   46 1   
    45   42   47 1   
    46   43   44 2   
    47   43   48 1   
    48   48   49 1   
    49   48   56 1   
    50   49   50 1   
    51   49   52 1   
    52   49   57 1   
    53   50   51 2   
    54   50   62 1   
    55   52   53 1   
    56   52   58 1   
    57   52   59 1   
    58   53   54 1   
    59   53   55 2   
    60   54   60 1   
    61   54   61 1   
    62   62   63 1   
    63   62   66 1   
    64   63   64 1   
    65   63   67 1   
    66   63   68 1   
    67   64   65 2   
    68   64   69 1   
    69   69   70 1   
    70   69   76 1   
    71   70   71 1   
    72   70   73 1   
    73   70   77 1   
    74   71   72 2   
    75   71   83 1   
    76   73   74 1   
    77   73   75 1   
    78   73   78 1   
    79   74   80 1   
    80   74   81 1   
    81   74   82 1   
    82   75   79 1   
    83   83   84 1   
    84   83   91 1   
    85   84   85 1   
    86   84   87 1   
    87   84   92 1   
    88   85   86 2   
    89   85  102 1   
    90   87   88 1   
    91   87   89 1   
    92   87   93 1   
    93   88   90 1   
    94   88   94 1   
    95   88   95 1   
    96   89   96 1   
    97   89   97 1   
    98   89   98 1   
    99   90   99 1   
   100   90  100 1   
   101   90  101 1   
   102  102  103 1   
   103  102  110 1   
   104  103  104 1   
   105  103  106 1   
   106  103  111 1   
   107  104  105 2   
   108  104  114 1   
   109  106  107 1   
   110  106  112 1   
   111  106  113 1   
   112  107  108 1   
   113  107  109 1   
   114  114  115 1   
   115  114  125 1   
   116  115  116 1   
   117  115  118 1   
   118  115  126 1   
   119  116  117 2   
   120  116  134 1   
   121  118  119 1   
   122  118  127 1   
   123  118  128 1   
   124  119  120 ar  
   125  119  121 ar  
   126  120  122 ar  
   127  120  129 1   
   128  121  123 ar  
   129  121  130 1   
   130  122  124 ar  
   131  122  131 1   
   132  123  124 ar  
   133  123  132 1   
   134  124  133 1   
   135  134  135 1   
   136  134  140 1   
   137  135  136 1   
   138  135  138 1   
   139  135  141 1   
   140  136  137 2   
   141  136  148 1   
   142  138  139 1   
   143  138  142 1   
   144  138  143 1   
   145  139  140 1   
   146  139  144 1   
   147  139  145 1   
   148  140  146 1   
   149  140  147 1   
   150  148  149 1   
   151  148  157 1   
   152  149  150 1   
   153  149  152 1   
   154  149  158 1   
   155  150  151 2   
   156  150  163 1   
   157  152  153 1   
   158  152  159 1   
   159  152  160 1   
   160  153  154 1   
   161  153  161 1   
   162  153  162 1   
   163  154  155 1   
   164  154  156 1   
   165  163  164 1   
   166  163  168 1   
   167  164  165 1   
   168  164  166 1   
   169  164  167 1   
   170  170  171 1   
   171  170  172 1   
   172  173  174 1   
   173  173  175 1   
   174  176  177 1   
   175  176  178 1   
@<TRIPOS>SUBSTRUCTURE
     1 MOL         1 TEMP              0 ****  ****    0 ROOT
