@<TRIPOS>MOLECULE
MOL
  186   183     1     0     0
SMALL
resp


@<TRIPOS>ATOM
      1 C1        -11.6900    4.3550    4.7110 c3        1 MOL     -0.536394
      2 C2        -11.7250    3.6630    3.3920 c         1 MOL      0.635031
      3 O1        -12.0830    2.4960    3.3570 o         1 MOL     -0.537245
      4 H1        -11.5220    5.4220    4.5580 hc        1 MOL      0.141357
      5 H2        -12.6400    4.2080    5.2240 hc        1 MOL      0.141357
      6 H3        -10.8820    3.9440    5.3160 hc        1 MOL      0.141357
      7 N1        -11.5610    4.3530    2.2990 n         1 MOL     -0.184962
      8 C3        -11.6360    3.7920    0.9540 c3        1 MOL     -0.597518
      9 C4        -10.6330    2.6500    0.7300 c         1 MOL      0.603803
     10 O2         -9.4820    2.6990    1.1860 o         1 MOL     -0.661492
     11 C5        -11.5320    4.8450   -0.1220 c3        1 MOL      0.358917
     12 C6        -10.3480    5.8590    0.0640 c         1 MOL      0.540964
     13 O3         -9.3030    5.4380    0.6000 o         1 MOL     -0.683522
     14 O4        -10.5230    7.0630   -0.3190 o         1 MOL     -0.683522
     15 H4        -11.1850    5.2810    2.4040 hn        1 MOL      0.221079
     16 H5        -12.6470    3.4080    0.7890 h1        1 MOL      0.164935
     17 H6        -12.5030    5.3460   -0.1880 hc        1 MOL     -0.038539
     18 H7        -11.3770    4.3220   -1.0640 hc        1 MOL     -0.038539
     19 N2        -10.9910    1.6250   -0.0620 n         1 MOL     -0.202827
     20 C7        -10.4600    0.2890    0.0500 c3        1 MOL     -0.368982
     21 C8         -8.9800    0.1480   -0.3250 c         1 MOL      0.888870
     22 O5         -8.4300   -0.9330   -0.0410 o         1 MOL     -0.579537
     23 C9        -11.3280   -0.6850   -0.8490 c3        1 MOL     -0.246373
     24 C10       -11.0260   -0.7440   -2.3400 c3        1 MOL      0.044011
     25 C11       -11.9320   -1.8410   -2.9180 c3        1 MOL      0.070401
     26 C12       -11.8730   -2.0650   -4.4460 c3        1 MOL     -0.219400
     27 N3        -12.5030   -1.0030   -5.2680 n4        1 MOL     -0.237100
     28 H8        -11.7660    1.7540   -0.6830 hn        1 MOL      0.226378
     29 H9        -10.5980   -0.0230    1.0920 h1        1 MOL      0.203492
     30 H10       -12.3840   -0.4370   -0.7490 hc        1 MOL      0.119823
     31 H11       -11.1550   -1.6610   -0.4070 hc        1 MOL      0.119823
     32 H12        -9.9840   -1.0130   -2.5080 hc        1 MOL      0.026537
     33 H13       -11.2020    0.2190   -2.8150 hc        1 MOL      0.026537
     34 H14       -12.9660   -1.6510   -2.6320 hc        1 MOL      0.029177
     35 H15       -11.7090   -2.7550   -2.3820 hc        1 MOL      0.029177
     36 H16       -12.4820   -2.9520   -4.6010 hx        1 MOL      0.166140
     37 H17       -10.8970   -2.2730   -4.8770 hx        1 MOL      0.166140
     38 H18       -13.4950   -1.0140   -5.0880 hn        1 MOL      0.278430
     39 H19       -12.1650   -0.0680   -5.0680 hn        1 MOL      0.278430
     40 H20       -12.4860   -1.2410   -6.2550 hn        1 MOL      0.278430
     41 N4         -8.2430    1.1010   -0.9000 n         1 MOL     -0.501975
     42 C13        -6.8500    0.8630   -1.1740 c3        1 MOL     -0.180030
     43 C14        -6.0180    1.2040    0.1170 c         1 MOL      0.635162
     44 O6         -6.4020    2.0350    0.9270 o         1 MOL     -0.642446
     45 C15        -6.3860    1.7730   -2.3340 c3        1 MOL     -0.008318
     46 C16        -6.6170    3.3240   -2.2080 c         1 MOL      0.547534
     47 O7         -6.1890    3.9780   -3.2110 o         1 MOL     -0.653111
     48 O8         -7.2220    3.8690   -1.2870 o         1 MOL     -0.653111
     49 H21        -8.6390    2.0250   -1.0230 hn        1 MOL      0.298098
     50 H22        -6.6490   -0.1520   -1.5140 h1        1 MOL      0.128610
     51 H23        -6.9470    1.3970   -3.1870 hc        1 MOL      0.041885
     52 H24        -5.3010    1.6550   -2.4400 hc        1 MOL      0.041885
     53 N5         -4.7630    0.7950    0.2530 n         1 MOL     -0.608252
     54 C17        -4.1100   -0.2240   -0.5770 c3        1 MOL      0.129904
     55 C18        -4.4720   -1.7040   -0.2540 c         1 MOL      0.684045
     56 O9         -5.1210   -1.9990    0.7510 o         1 MOL     -0.518456
     57 H25        -4.3040    1.0920    1.0990 hn        1 MOL      0.347953
     58 H26        -3.0410   -0.1150   -0.4290 h1        1 MOL      0.039747
     59 H27        -4.3950   -0.0230   -1.6160 h1        1 MOL      0.039747
     60 N6         -3.9440   -2.6520   -1.0170 n         1 MOL     -0.857826
     61 C19        -4.2640   -4.0800   -0.9160 c3        1 MOL      0.808656
     62 C20        -3.0870   -5.0860   -1.1050 c         1 MOL      0.312713
     63 O10        -2.1550   -4.8540   -1.8920 o         1 MOL     -0.519655
     64 C21        -5.4340   -4.5080   -1.7380 c3        1 MOL     -0.427476
     65 C22        -6.3280   -5.6260   -1.1330 c         1 MOL      0.709398
     66 O11        -7.4550   -5.8830   -1.6390 o         1 MOL     -0.667086
     67 O12        -5.9340   -6.2230   -0.1020 o         1 MOL     -0.667086
     68 H28        -3.4650   -2.3180   -1.8340 hn        1 MOL      0.304647
     69 H29        -4.5190   -4.2790    0.1180 h1        1 MOL     -0.110949
     70 H30        -5.0000   -4.7610   -2.7030 hc        1 MOL      0.057554
     71 H31        -6.0590   -3.6090   -1.7830 hc        1 MOL      0.057554
     72 N7         -3.2110   -6.2630   -0.4270 n         1 MOL     -0.205822
     73 C23        -2.2170   -7.3180   -0.2340 c3        1 MOL     -0.350196
     74 C24        -1.0010   -6.9700    0.6330 c         1 MOL      0.656822
     75 O13        -0.3470   -7.8050    1.2590 o         1 MOL     -0.591481
     76 H32        -4.0690   -6.4120    0.0870 hn        1 MOL      0.234920
     77 H33        -1.8560   -7.5620   -1.2400 h1        1 MOL      0.154491
     78 H34        -2.7730   -8.1700    0.1530 h1        1 MOL      0.154491
     79 N8         -0.7060   -5.6580    0.6890 n         1 MOL     -0.356729
     80 C25         0.4770   -5.0710    1.4400 c3        1 MOL     -0.105884
     81 C26         0.9350   -3.7370    0.8740 c         1 MOL      0.639313
     82 O14         0.1030   -2.9700    0.2840 o         1 MOL     -0.489645
     83 C27         0.0960   -4.8830    2.9140 c3        1 MOL      0.414231
     84 C28        -1.3720   -4.3480    3.1730 c3        1 MOL     -0.264337
     85 O15         0.0660   -6.1880    3.4150 oh        1 MOL     -0.700342
     86 H35        -1.4610   -5.0600    0.3710 hn        1 MOL      0.204042
     87 H36         1.3620   -5.6960    1.5710 h1        1 MOL      0.076798
     88 H37         0.8910   -4.3260    3.4050 h1        1 MOL      0.011941
     89 H38        -0.0230   -6.8900    2.7700 ho        1 MOL      0.432840
     90 H39        -1.6000   -4.4280    4.2390 hc        1 MOL      0.068822
     91 H40        -1.4330   -3.3440    2.7660 hc        1 MOL      0.068822
     92 H41        -2.1290   -4.8930    2.5990 hc        1 MOL      0.068822
     93 N9          2.2560   -3.3870    1.0290 n         1 MOL     -0.672452
     94 C29         2.8490   -2.1700    0.4870 c3        1 MOL     -0.034595
     95 C30         3.9230   -2.3580   -0.4990 c         1 MOL      0.723384
     96 O16         3.9400   -1.6670   -1.5290 o         1 MOL     -0.561542
     97 C31         3.0850   -1.1400    1.6010 c3        1 MOL      0.141247
     98 C32         1.8220   -1.0040    2.5480 c3        1 MOL      0.063078
     99 C33         3.4460    0.1940    0.9560 c3        1 MOL     -0.376952
    100 C34         2.0850   -0.0170    3.7480 c3        1 MOL     -0.180173
    101 H42         2.9480   -4.0510    1.3720 hn        1 MOL      0.331703
    102 H43         2.0690   -1.7310   -0.1390 h1        1 MOL      0.078378
    103 H44         3.9730   -1.3380    2.2140 hc        1 MOL     -0.006688
    104 H45         1.6440   -1.9500    3.0620 hc        1 MOL     -0.003695
    105 H46         0.8850   -0.8140    2.0250 hc        1 MOL     -0.003695
    106 H47         4.2510    0.0630    0.2250 hc        1 MOL      0.104012
    107 H48         2.5150    0.6130    0.5880 hc        1 MOL      0.104012
    108 H49         3.8660    0.8960    1.6730 hc        1 MOL      0.104012
    109 H50         1.2610   -0.0560    4.4730 hc        1 MOL      0.044685
    110 H51         2.8930   -0.3790    4.3810 hc        1 MOL      0.044685
    111 H52         2.3300    0.9900    3.4180 hc        1 MOL      0.044685
    112 N10         4.9290   -3.1100   -0.1190 n         1 MOL     -0.506087
    113 C35         6.3570   -2.8370   -0.5830 c3        1 MOL     -0.079154
    114 C36         7.2930   -2.5630    0.5100 c         1 MOL      0.775078
    115 O17         7.0550   -2.9600    1.6390 o         1 MOL     -0.575852
    116 C37         6.8410   -3.9870   -1.3930 c3        1 MOL      0.375699
    117 C38         5.9560   -4.1540   -2.6260 c3        1 MOL     -0.358622
    118 O18         8.1770   -3.8630   -1.8590 oh        1 MOL     -0.662196
    119 H53         4.7610   -3.7590    0.6430 hn        1 MOL      0.268029
    120 H54         6.4460   -1.9660   -1.2250 h1        1 MOL      0.101616
    121 H55         6.9130   -4.9060   -0.8060 h1        1 MOL      0.042434
    122 H56         8.2570   -3.4790   -2.7310 ho        1 MOL      0.405277
    123 H57         5.7330   -3.2140   -3.1280 hc        1 MOL      0.096226
    124 H58         6.3970   -4.8270   -3.3480 hc        1 MOL      0.096226
    125 H59         5.0630   -4.5610   -2.1530 hc        1 MOL      0.096226
    126 N11         8.4640   -1.9220    0.2600 n         1 MOL     -0.745293
    127 C39         9.5920   -1.8230    1.2070 c3        1 MOL      0.127056
    128 C40        10.2700   -0.4470    1.2950 c         1 MOL      0.685968
    129 O19        10.4660   -0.0320    2.3850 o         1 MOL     -0.573607
    130 C41        10.5930   -2.8350    0.7580 c3        1 MOL      0.223578
    131 C42        11.7250   -3.0350    1.7540 c3        1 MOL     -0.268658
    132 O20        11.0600   -2.4500   -0.5690 oh        1 MOL     -0.653243
    133 H60         8.7100   -1.5590   -0.6520 hn        1 MOL      0.346191
    134 H61         9.2640   -2.1570    2.1930 h1        1 MOL      0.085183
    135 H62        10.0890   -3.7950    0.6240 h1        1 MOL      0.077371
    136 H63        11.8730   -2.9260   -0.7440 ho        1 MOL      0.405217
    137 H64        12.1310   -4.0430    1.6510 hc        1 MOL      0.064836
    138 H65        12.5030   -2.2830    1.6370 hc        1 MOL      0.064836
    139 H66        11.3380   -2.8830    2.7520 hc        1 MOL      0.064836
    140 N12        10.3580    0.2870    0.1750 n         1 MOL     -0.476649
    141 C43        10.8570    1.6730    0.2040 c3        1 MOL     -0.018890
    142 C44        10.1240    2.5460   -0.8270 c         1 MOL      0.579449
    143 O21         9.6700    2.0440   -1.8530 o         1 MOL     -0.509527
    144 C45        12.2750    1.5460   -0.2490 c3        1 MOL     -0.211701
    145 C46        13.1880    1.0100    0.8640 c3        1 MOL     -0.313780
    146 C47        14.6290    1.1450    0.3450 c3        1 MOL     -0.076477
    147 C48        14.9570    0.3410   -0.9590 c3        1 MOL      0.099740
    148 N13        16.4050    0.1430   -1.1190 n4        1 MOL     -0.282016
    149 H67        10.0920   -0.1940   -0.6700 hn        1 MOL      0.285937
    150 H68        10.8720    2.2410    1.1250 h1        1 MOL      0.095494
    151 H69        12.5550    2.5520   -0.5690 hc        1 MOL      0.095999
    152 H70        12.3740    1.0260   -1.2050 hc        1 MOL      0.095999
    153 H71        12.8330    0.0260    1.1450 hc        1 MOL      0.153025
    154 H72        13.1350    1.5400    1.8130 hc        1 MOL      0.153025
    155 H73        15.3290    0.8460    1.1230 hc        1 MOL      0.065083
    156 H74        14.8090    2.2080    0.1700 hc        1 MOL      0.065083
    157 H75        14.5710    0.7870   -1.8710 hx        1 MOL      0.069371
    158 H76        14.4250   -0.6110   -0.8590 hx        1 MOL      0.069371
    159 H77        16.6080   -0.0860   -2.0840 hn        1 MOL      0.255457
    160 H78        16.9260    1.0060   -1.1060 hn        1 MOL      0.255457
    161 H79        16.8360   -0.5090   -0.4710 hn        1 MOL      0.255457
    162 N14         9.8610    3.8450   -0.4900 n         1 MOL     -0.468657
    163 C49         9.1290    4.7830   -1.2930 c3        1 MOL      0.207822
    164 C50         7.6060    4.6250   -1.3760 c         1 MOL      0.390037
    165 O22         7.0240    4.3940   -2.4260 o         1 MOL     -0.523933
    166 C51         9.5350    6.2040   -0.9830 c3        1 MOL      0.008234
    167 C52        10.9940    6.5770   -1.1950 c3        1 MOL     -0.186355
    168 C53        11.1240    8.0890   -0.9730 c         1 MOL      0.684450
    169 O23        11.5100    8.5050    0.1600 o         1 MOL     -0.643795
    170 O24        10.8660    8.8190   -1.9190 o         1 MOL     -0.643795
    171 H80        10.1050    4.1570    0.4330 hn        1 MOL      0.326911
    172 H81         9.4650    4.6220   -2.3160 h1        1 MOL      0.047121
    173 H82         9.3970    6.4780    0.0580 hc        1 MOL      0.024974
    174 H83         9.0590    6.9540   -1.6210 hc        1 MOL      0.024974
    175 H84        11.1800    6.3340   -2.2400 hc        1 MOL     -0.007538
    176 H85        11.5580    5.9510   -0.5060 hc        1 MOL     -0.007538
    177 N15         6.8750    4.7340   -0.2820 n         1 MOL     -0.382560
    178 C54         7.2950    4.9230    1.1260 c3        1 MOL      0.032466
    179 H86         7.3870    5.9890    1.3370 h1        1 MOL      0.023789
    180 H87         6.5510    4.4840    1.7900 h1        1 MOL      0.023789
    181 H88         8.2580    4.4370    1.2870 h1        1 MOL      0.023789
    182 H89         5.8850    4.6500   -0.4350 hn        1 MOL      0.293483
    183 Ca1        -6.9650    4.6100    1.1470 Ca        1 MOL      1.726475
    184 O25        -7.4120    3.1490    3.4050 oh        1 MOL     -0.911146
    185 H90        -7.9320    2.4240    3.0540 ho        1 MOL      0.466481
    186 H91        -7.6380    3.1730    4.3270 ho        1 MOL      0.466481
@<TRIPOS>BOND
     1    1    2 1   
     2    1    4 1   
     3    1    5 1   
     4    1    6 1   
     5    2    3 2   
     6    2    7 1   
     7    7    8 1   
     8    7   15 1   
     9    8    9 1   
    10    8   11 1   
    11    8   16 1   
    12    9   10 2   
    13    9   19 1   
    14   11   12 1   
    15   11   17 1   
    16   11   18 1   
    17   12   13 1   
    18   12   14 1   
    19   19   20 1   
    20   19   28 1   
    21   20   21 1   
    22   20   23 1   
    23   20   29 1   
    24   21   22 2   
    25   21   41 1   
    26   23   24 1   
    27   23   30 1   
    28   23   31 1   
    29   24   25 1   
    30   24   32 1   
    31   24   33 1   
    32   25   26 1   
    33   25   34 1   
    34   25   35 1   
    35   26   27 1   
    36   26   36 1   
    37   26   37 1   
    38   27   38 1   
    39   27   39 1   
    40   27   40 1   
    41   41   42 1   
    42   41   49 1   
    43   42   43 1   
    44   42   45 1   
    45   42   50 1   
    46   43   44 2   
    47   43   53 1   
    48   45   46 1   
    49   45   51 1   
    50   45   52 1   
    51   46   47 1   
    52   46   48 1   
    53   53   54 1   
    54   53   57 1   
    55   54   55 1   
    56   54   58 1   
    57   54   59 1   
    58   55   56 2   
    59   55   60 1   
    60   60   61 1   
    61   60   68 1   
    62   61   62 1   
    63   61   64 1   
    64   61   69 1   
    65   62   63 2   
    66   62   72 1   
    67   64   65 1   
    68   64   70 1   
    69   64   71 1   
    70   65   66 1   
    71   65   67 1   
    72   72   73 1   
    73   72   76 1   
    74   73   74 1   
    75   73   77 1   
    76   73   78 1   
    77   74   75 2   
    78   74   79 1   
    79   79   80 1   
    80   79   86 1   
    81   80   81 1   
    82   80   83 1   
    83   80   87 1   
    84   81   82 2   
    85   81   93 1   
    86   83   84 1   
    87   83   85 1   
    88   83   88 1   
    89   84   90 1   
    90   84   91 1   
    91   84   92 1   
    92   85   89 1   
    93   93   94 1   
    94   93  101 1   
    95   94   95 1   
    96   94   97 1   
    97   94  102 1   
    98   95   96 2   
    99   95  112 1   
   100   97   98 1   
   101   97   99 1   
   102   97  103 1   
   103   98  100 1   
   104   98  104 1   
   105   98  105 1   
   106   99  106 1   
   107   99  107 1   
   108   99  108 1   
   109  100  109 1   
   110  100  110 1   
   111  100  111 1   
   112  112  113 1   
   113  112  119 1   
   114  113  114 1   
   115  113  116 1   
   116  113  120 1   
   117  114  115 2   
   118  114  126 1   
   119  116  117 1   
   120  116  118 1   
   121  116  121 1   
   122  117  123 1   
   123  117  124 1   
   124  117  125 1   
   125  118  122 1   
   126  126  127 1   
   127  126  133 1   
   128  127  128 1   
   129  127  130 1   
   130  127  134 1   
   131  128  129 2   
   132  128  140 1   
   133  130  131 1   
   134  130  132 1   
   135  130  135 1   
   136  131  137 1   
   137  131  138 1   
   138  131  139 1   
   139  132  136 1   
   140  140  141 1   
   141  140  149 1   
   142  141  142 1   
   143  141  144 1   
   144  141  150 1   
   145  142  143 2   
   146  142  162 1   
   147  144  145 1   
   148  144  151 1   
   149  144  152 1   
   150  145  146 1   
   151  145  153 1   
   152  145  154 1   
   153  146  147 1   
   154  146  155 1   
   155  146  156 1   
   156  147  148 1   
   157  147  157 1   
   158  147  158 1   
   159  148  159 1   
   160  148  160 1   
   161  148  161 1   
   162  162  163 1   
   163  162  171 1   
   164  163  164 1   
   165  163  166 1   
   166  163  172 1   
   167  164  165 2   
   168  164  177 1   
   169  166  167 1   
   170  166  173 1   
   171  166  174 1   
   172  167  168 1   
   173  167  175 1   
   174  167  176 1   
   175  168  169 1   
   176  168  170 1   
   177  177  178 1   
   178  177  182 1   
   179  178  179 1   
   180  178  180 1   
   181  178  181 1   
   182  184  185 1   
   183  184  186 1   
@<TRIPOS>SUBSTRUCTURE
     1 MOL         1 TEMP              0 ****  ****    0 ROOT
