@<TRIPOS>MOLECULE
MOL
  185   180     1     0     0
SMALL
resp


@<TRIPOS>ATOM
      1 C1          5.2520    1.4550    4.9370 c3        1 MOL     -0.404167
      2 C2          6.0640    0.9120    3.7250 c         1 MOL      0.598767
      3 O1          5.7510   -0.2030    3.2410 o         1 MOL     -0.597781
      4 H1          4.7990    2.4110    4.6710 hc        1 MOL      0.111848
      5 H2          4.4690    0.7440    5.2000 hc        1 MOL      0.111848
      6 H3          5.9170    1.5930    5.7880 hc        1 MOL      0.111848
      7 N1          7.0560    1.6560    3.2210 n         1 MOL     -0.310977
      8 C3          8.0250    1.2390    2.2160 c3        1 MOL     -0.086081
      9 C4          7.5530    0.5920    0.9230 c         1 MOL      0.591116
     10 O2          6.8080    1.2540    0.2550 o         1 MOL     -0.436713
     11 C5          8.8810    2.4730    1.9770 c3        1 MOL     -0.232502
     12 C6          8.2180    3.8070    1.7090 c         1 MOL      0.730421
     13 O3          8.3080    4.3740    0.5730 o         1 MOL     -0.667842
     14 O4          7.5870    4.2370    2.7040 o         1 MOL     -0.667842
     15 H4          7.1420    2.6100    3.5670 hn        1 MOL      0.255421
     16 H5          8.6650    0.5070    2.6980 h1        1 MOL      0.030874
     17 H6          9.5600    2.2870    1.1530 hc        1 MOL      0.048710
     18 H7          9.5400    2.5690    2.8350 hc        1 MOL      0.048710
     19 N2          8.0790   -0.6140    0.6340 n         1 MOL     -0.514015
     20 C7          7.7760   -1.3220   -0.5990 c3        1 MOL      0.182596
     21 C8          6.4930   -2.1050   -0.3950 c         1 MOL      0.423396
     22 O5          6.5100   -3.3400   -0.3060 o         1 MOL     -0.555346
     23 C9          8.9050   -2.2750   -1.0940 c3        1 MOL      0.092185
     24 C10        10.2630   -1.6310   -1.3100 c3        1 MOL      0.120039
     25 C11        11.1420   -2.5950   -2.1470 c3        1 MOL     -0.224958
     26 C12        11.5050   -3.9220   -1.4700 c3        1 MOL      0.164069
     27 N3         12.1930   -4.8350   -2.4310 n4        1 MOL     -0.495334
     28 H8          8.7190   -1.0040    1.3080 hn        1 MOL      0.306795
     29 H9          7.6350   -0.6200   -1.4150 h1        1 MOL      0.017560
     30 H10         8.5320   -2.6900   -2.0300 hc        1 MOL     -0.018879
     31 H11         9.0530   -3.0730   -0.3630 hc        1 MOL     -0.018879
     32 H12        10.7420   -1.4940   -0.3440 hc        1 MOL     -0.014765
     33 H13        10.0950   -0.6560   -1.7710 hc        1 MOL     -0.014765
     34 H14        12.0940   -2.0830   -2.2630 hc        1 MOL      0.080340
     35 H15        10.5810   -2.7810   -3.0660 hc        1 MOL      0.080340
     36 H16        10.6330   -4.5070   -1.1720 hx        1 MOL      0.066472
     37 H17        12.2010   -3.7370   -0.6570 hx        1 MOL      0.066472
     38 H18        12.9900   -4.2980   -2.7500 hn        1 MOL      0.358833
     39 H19        12.5220   -5.7050   -2.0410 hn        1 MOL      0.358833
     40 H20        11.5760   -5.0790   -3.1930 hn        1 MOL      0.358833
     41 N4          5.4350   -1.3590   -0.0480 n         1 MOL     -0.151407
     42 C13         4.0730   -1.8010    0.2270 c3        1 MOL     -0.253098
     43 C14         3.5010   -2.5840   -0.9270 c         1 MOL      0.602173
     44 O6          3.6430   -2.1210   -2.0490 o         1 MOL     -0.518687
     45 C15         3.2340   -0.6210    0.6000 c3        1 MOL     -0.024914
     46 C16         1.8220   -1.0340    0.8840 c         1 MOL      0.101044
     47 O7          1.4480   -1.4440    2.0470 o         1 MOL     -0.500143
     48 O8          0.9490   -0.8710   -0.0640 o         1 MOL     -0.500143
     49 H21         5.6380   -0.3690   -0.0170 hn        1 MOL      0.096289
     50 H22         4.1360   -2.4070    1.1300 h1        1 MOL      0.146038
     51 H23         3.2390    0.1190   -0.2000 hc        1 MOL      0.178356
     52 H24         3.6170   -0.1840    1.5230 hc        1 MOL      0.178356
     53 N5          2.7610   -3.6610   -0.6570 n         1 MOL     -0.424002
     54 C17         2.2300   -4.5490   -1.6840 c3        1 MOL      0.076645
     55 C18         1.3670   -3.8670   -2.8070 c         1 MOL      0.431255
     56 O9          1.4200   -4.3530   -3.9650 o         1 MOL     -0.556018
     57 H25         2.6610   -4.0010    0.2860 hn        1 MOL      0.282962
     58 H26         1.6240   -5.3410   -1.2410 h1        1 MOL      0.037819
     59 H27         3.0200   -5.0910   -2.2130 h1        1 MOL      0.037819
     60 N6          0.7100   -2.7350   -2.5080 n         1 MOL     -0.272877
     61 C19        -0.0070   -1.9760   -3.5480 c3        1 MOL      0.138626
     62 C20         0.4170   -0.5350   -3.7030 c         1 MOL      0.373754
     63 O10        -0.4120    0.2790   -4.1340 o         1 MOL     -0.495174
     64 C21        -1.4770   -2.2530   -3.3970 c3        1 MOL     -0.238683
     65 C22        -2.2050   -1.5020   -2.3230 c         1 MOL      0.814444
     66 N7         -2.9640   -0.5380   -2.5740 n         1 MOL     -0.811648
     67 O11        -1.9940   -1.7800   -1.1460 o         1 MOL     -0.743630
     68 H28         0.7880   -2.3280   -1.5930 hn        1 MOL      0.278333
     69 H29         0.2110   -2.4440   -4.5130 h1        1 MOL      0.091521
     70 H30        -1.5680   -3.3280   -3.2400 hc        1 MOL      0.063022
     71 H31        -1.8480   -2.0370   -4.3990 hc        1 MOL      0.063022
     72 H32        -2.9200   -0.1410   -3.4940 hn        1 MOL      0.333874
     73 H33        -3.4800   -0.1510   -1.7900 hn        1 MOL      0.333874
     74 N8          1.6210   -0.1640   -3.2400 n         1 MOL     -0.228819
     75 C23         2.1220    1.1640   -3.3290 c3        1 MOL     -0.207238
     76 C24         1.6450    2.1700   -2.3120 c         1 MOL      0.431365
     77 O12         1.8370    3.3620   -2.6120 o         1 MOL     -0.518227
     78 H34         2.1940   -0.8690   -2.7970 hn        1 MOL      0.176452
     79 H35         1.9040    1.5620   -4.3200 h1        1 MOL      0.134704
     80 H36         3.2070    1.0970   -3.2610 h1        1 MOL      0.134704
     81 N9          1.0520    1.7700   -1.1550 n         1 MOL     -0.135105
     82 C25         0.2330    2.6990   -0.2870 c3        1 MOL      0.153988
     83 C26        -1.2170    2.2100   -0.0880 c         1 MOL      0.204510
     84 O13        -1.4440    0.9330    0.0050 o         1 MOL     -0.301528
     85 C27         0.9670    2.9710    1.0710 c3        1 MOL     -0.176151
     86 C28         2.2760    3.7610    0.8840 ca        1 MOL      0.018272
     87 C29         2.3540    5.1470    0.5720 ca        1 MOL     -0.210955
     88 C30         3.5120    3.1620    1.0370 ca        1 MOL     -0.210955
     89 C31         3.5310    5.8650    0.3960 ca        1 MOL     -0.173321
     90 C32         4.7380    3.8440    0.9470 ca        1 MOL     -0.173321
     91 C33         4.7580    5.2000    0.6280 ca        1 MOL      0.390112
     92 O14         6.0290    5.8190    0.4340 oh        1 MOL     -0.615244
     93 H37         0.9160    0.7890   -0.9500 hn        1 MOL      0.038192
     94 H38         0.2030    3.6700   -0.7790 h1        1 MOL      0.035743
     95 H39         1.2000    2.0310    1.5660 hc        1 MOL      0.080204
     96 H40         0.2320    3.4890    1.6780 hc        1 MOL      0.080204
     97 H41         1.4680    5.6920    0.2840 ha        1 MOL      0.109213
     98 H42         3.5310    2.1420    1.4060 ha        1 MOL      0.109213
     99 H43         3.5250    6.8750    0.0220 ha        1 MOL      0.119559
    100 H44         5.6750    3.3700    1.1840 ha        1 MOL      0.119559
    101 H45         6.7970    5.2540    0.3190 ho        1 MOL      0.428270
    102 N10        -2.1740    3.0830    0.1180 n         1 MOL     -0.248648
    103 C34        -3.5660    2.8370    0.4930 c3        1 MOL      0.186156
    104 C35        -4.3180    2.2190   -0.6860 c         1 MOL      0.488671
    105 O15        -4.7960    1.1080   -0.6150 o         1 MOL     -0.520619
    106 C36        -4.2300    4.0900    1.1470 c3        1 MOL      0.082242
    107 C37        -3.4370    4.3680    2.4110 c3        1 MOL      0.220090
    108 C38        -5.7290    4.0400    1.5000 c3        1 MOL     -0.364379
    109 C39        -3.6220    3.3960    3.5940 c3        1 MOL     -0.212871
    110 H46        -1.9670    4.0680    0.0070 hn        1 MOL      0.213761
    111 H47        -3.6040    1.9920    1.1930 h1        1 MOL     -0.057180
    112 H48        -4.1410    4.9490    0.4820 hc        1 MOL     -0.018479
    113 H49        -3.7290    5.3930    2.6360 hc        1 MOL     -0.064601
    114 H50        -2.3840    4.4320    2.1340 hc        1 MOL     -0.064601
    115 H51        -5.9640    3.2780    2.2450 hc        1 MOL      0.104626
    116 H52        -5.9990    4.9500    2.0320 hc        1 MOL      0.104626
    117 H53        -6.3630    4.0210    0.6130 hc        1 MOL      0.104626
    118 H54        -4.6050    3.5780    4.0310 hc        1 MOL      0.063886
    119 H55        -3.3190    2.3740    3.3510 hc        1 MOL      0.063886
    120 H56        -2.8620    3.6970    4.3250 hc        1 MOL      0.063886
    121 N11        -4.3610    2.9790   -1.7650 n         1 MOL     -0.445296
    122 C40        -4.8940    2.4720   -3.0480 c3        1 MOL      0.011081
    123 C41        -6.2730    1.9400   -2.8960 c         1 MOL      0.463702
    124 O16        -6.5690    1.0210   -3.6220 o         1 MOL     -0.480693
    125 C42        -4.9420    3.6210   -4.0360 c3        1 MOL      0.074974
    126 O17        -3.6230    3.9210   -4.4360 oh        1 MOL     -0.581778
    127 H57        -3.9490    3.9040   -1.8160 hn        1 MOL      0.268488
    128 H58        -4.2280    1.7000   -3.4340 h1        1 MOL      0.212705
    129 H59        -5.3870    4.5340   -3.6400 h1        1 MOL      0.062240
    130 H60        -5.5140    3.1850   -4.8630 h1        1 MOL      0.062240
    131 H61        -3.5400    4.8720   -4.5240 ho        1 MOL      0.418536
    132 N12        -7.2330    2.5430   -2.1400 n         1 MOL     -0.524575
    133 C43        -8.5740    2.0290   -1.8530 c3        1 MOL      0.288005
    134 C44        -8.6070    0.4790   -1.5290 c         1 MOL      0.522199
    135 O18        -9.7030   -0.1140   -1.6510 o         1 MOL     -0.555282
    136 C45        -9.6340    2.5070   -2.8640 c3        1 MOL     -0.382328
    137 H62        -6.9120    3.3310   -1.5900 hn        1 MOL      0.276130
    138 H63        -8.9750    2.4980   -0.9560 h1        1 MOL      0.045697
    139 H64        -9.5220    2.0420   -3.8480 hc        1 MOL      0.107034
    140 H65       -10.6500    2.4010   -2.4630 hc        1 MOL      0.107034
    141 H66        -9.6380    3.5770   -3.0580 hc        1 MOL      0.107034
    142 N13        -7.5670   -0.0670   -0.8790 n         1 MOL     -0.564437
    143 C46        -7.4000   -1.4600   -0.6390 c3        1 MOL      0.592721
    144 C47        -7.0410   -1.7940    0.8020 c         1 MOL      0.272152
    145 O19        -6.5260   -0.9770    1.4810 o         1 MOL     -0.407775
    146 C48        -6.3550   -1.9830   -1.6140 c3        1 MOL     -0.434058
    147 H67        -6.7710    0.5200   -0.6730 hn        1 MOL      0.175106
    148 H68        -8.3580   -1.9380   -0.8330 h1        1 MOL     -0.046334
    149 H69        -6.6530   -1.5520   -2.5670 hc        1 MOL      0.114437
    150 H70        -5.3870   -1.5480   -1.3500 hc        1 MOL      0.114437
    151 H71        -6.3590   -3.0780   -1.6220 hc        1 MOL      0.114437
    152 N14        -7.4490   -2.9940    1.2010 n         1 MOL     -0.352987
    153 C49        -7.2020   -3.4520    2.5360 c3        1 MOL     -0.027225
    154 C50        -7.9170   -2.5880    3.6640 c         1 MOL      0.316766
    155 O20        -7.2980   -2.3070    4.7330 o         1 MOL     -0.485916
    156 C51        -5.6570   -3.5800    2.9000 c3        1 MOL      0.054187
    157 C52        -4.8930   -4.2610    1.8370 c3        1 MOL      0.085232
    158 C53        -3.3700   -4.4180    2.1930 c         1 MOL      0.546597
    159 O21        -2.6290   -3.6930    1.5000 o         1 MOL     -0.662596
    160 O22        -3.0330   -5.2000    3.0600 o         1 MOL     -0.662596
    161 H72        -7.9570   -3.5850    0.5670 hn        1 MOL      0.271083
    162 H73        -7.5970   -4.4670    2.5820 h1        1 MOL      0.073031
    163 H74        -5.5950   -4.1660    3.8060 hc        1 MOL      0.028745
    164 H75        -5.3400   -2.5560    3.0940 hc        1 MOL      0.028745
    165 H76        -5.0780   -3.7790    0.8820 hc        1 MOL     -0.055406
    166 H77        -5.3770   -5.2430    1.7470 hc        1 MOL     -0.055406
    167 N15        -8.9910   -1.9360    3.3350 n         1 MOL     -0.207670
    168 C54        -9.5970   -0.9040    4.2020 c3        1 MOL     -0.019806
    169 H78        -9.7590    0.0050    3.6240 h1        1 MOL      0.056008
    170 H79       -10.5510   -1.2650    4.5850 h1        1 MOL      0.056008
    171 H80        -8.9280   -0.6900    5.0360 h1        1 MOL      0.056008
    172 H81        -9.3190   -2.0960    2.3890 hn        1 MOL      0.191838
    173 Ca1        -1.1510   -1.5890    1.2990 Ca        1 MOL      1.771813
    174 O23        -0.6320   -3.3430    3.4260 oh        1 MOL     -0.922452
    175 H82        -1.2410   -3.9240    2.9570 ho        1 MOL      0.439095
    176 H83        -0.2650   -3.8900    4.1140 ho        1 MOL      0.439095
    177 O24        -0.8540    0.1400    3.1910 oh        1 MOL     -0.922452
    178 H84        -0.5090   -0.3630    3.9200 ho        1 MOL      0.439095
    179 H85        -0.9400    1.0330    3.5370 ho        1 MOL      0.439095
    180 O25        -3.8940   -0.8470    1.2770 oh        1 MOL     -0.922452
    181 H86        -3.9070    0.0260    0.8740 ho        1 MOL      0.439095
    182 H87        -4.7870   -1.1690    1.1770 ho        1 MOL      0.439095
    183 O26        -0.2900   -4.1170    0.1690 oh        1 MOL     -0.922452
    184 H88        -0.9470   -4.6910   -0.2210 ho        1 MOL      0.439095
    185 H89         0.3920   -4.7160    0.4730 ho        1 MOL      0.439095
@<TRIPOS>BOND
     1    1    2 1   
     2    1    4 1   
     3    1    5 1   
     4    1    6 1   
     5    2    3 2   
     6    2    7 1   
     7    7    8 1   
     8    7   15 1   
     9    8    9 1   
    10    8   11 1   
    11    8   16 1   
    12    9   10 2   
    13    9   19 1   
    14   11   12 1   
    15   11   17 1   
    16   11   18 1   
    17   12   13 1   
    18   12   14 1   
    19   19   20 1   
    20   19   28 1   
    21   20   21 1   
    22   20   23 1   
    23   20   29 1   
    24   21   22 2   
    25   21   41 1   
    26   23   24 1   
    27   23   30 1   
    28   23   31 1   
    29   24   25 1   
    30   24   32 1   
    31   24   33 1   
    32   25   26 1   
    33   25   34 1   
    34   25   35 1   
    35   26   27 1   
    36   26   36 1   
    37   26   37 1   
    38   27   38 1   
    39   27   39 1   
    40   27   40 1   
    41   41   42 1   
    42   41   49 1   
    43   42   43 1   
    44   42   45 1   
    45   42   50 1   
    46   43   44 2   
    47   43   53 1   
    48   45   46 1   
    49   45   51 1   
    50   45   52 1   
    51   46   47 1   
    52   46   48 1   
    53   53   54 1   
    54   53   57 1   
    55   54   55 1   
    56   54   58 1   
    57   54   59 1   
    58   55   56 2   
    59   55   60 1   
    60   60   61 1   
    61   60   68 1   
    62   61   62 1   
    63   61   64 1   
    64   61   69 1   
    65   62   63 2   
    66   62   74 1   
    67   64   65 1   
    68   64   70 1   
    69   64   71 1   
    70   65   66 1   
    71   65   67 2   
    72   66   72 1   
    73   66   73 1   
    74   74   75 1   
    75   74   78 1   
    76   75   76 1   
    77   75   79 1   
    78   75   80 1   
    79   76   77 2   
    80   76   81 1   
    81   81   82 1   
    82   81   93 1   
    83   82   83 1   
    84   82   85 1   
    85   82   94 1   
    86   83   84 2   
    87   83  102 1   
    88   85   86 1   
    89   85   95 1   
    90   85   96 1   
    91   86   87 ar  
    92   86   88 ar  
    93   87   89 ar  
    94   87   97 1   
    95   88   90 ar  
    96   88   98 1   
    97   89   91 ar  
    98   89   99 1   
    99   90   91 ar  
   100   90  100 1   
   101   91   92 1   
   102   92  101 1   
   103  102  103 1   
   104  102  110 1   
   105  103  104 1   
   106  103  106 1   
   107  103  111 1   
   108  104  105 2   
   109  104  121 1   
   110  106  107 1   
   111  106  108 1   
   112  106  112 1   
   113  107  109 1   
   114  107  113 1   
   115  107  114 1   
   116  108  115 1   
   117  108  116 1   
   118  108  117 1   
   119  109  118 1   
   120  109  119 1   
   121  109  120 1   
   122  121  122 1   
   123  121  127 1   
   124  122  123 1   
   125  122  125 1   
   126  122  128 1   
   127  123  124 2   
   128  123  132 1   
   129  125  126 1   
   130  125  129 1   
   131  125  130 1   
   132  126  131 1   
   133  132  133 1   
   134  132  137 1   
   135  133  134 1   
   136  133  136 1   
   137  133  138 1   
   138  134  135 2   
   139  134  142 1   
   140  136  139 1   
   141  136  140 1   
   142  136  141 1   
   143  142  143 1   
   144  142  147 1   
   145  143  144 1   
   146  143  146 1   
   147  143  148 1   
   148  144  145 2   
   149  144  152 1   
   150  146  149 1   
   151  146  150 1   
   152  146  151 1   
   153  152  153 1   
   154  152  161 1   
   155  153  154 1   
   156  153  156 1   
   157  153  162 1   
   158  154  155 2   
   159  154  167 1   
   160  156  157 1   
   161  156  163 1   
   162  156  164 1   
   163  157  158 1   
   164  157  165 1   
   165  157  166 1   
   166  158  159 1   
   167  158  160 1   
   168  167  168 1   
   169  167  172 1   
   170  168  169 1   
   171  168  170 1   
   172  168  171 1   
   173  174  175 1   
   174  174  176 1   
   175  177  178 1   
   176  177  179 1   
   177  180  181 1   
   178  180  182 1   
   179  183  184 1   
   180  183  185 1   
@<TRIPOS>SUBSTRUCTURE
     1 MOL         1 TEMP              0 ****  ****    0 ROOT
