@<TRIPOS>MOLECULE
MOL
  175   173     1     0     0
SMALL
resp


@<TRIPOS>ATOM
      1 C1         -6.9350    8.0750    1.8350 c3        1 MOL     -0.468765
      2 C2         -7.5640    7.1360    0.7810 c         1 MOL      0.658254
      3 O1         -7.6190    7.3850   -0.3850 o         1 MOL     -0.566138
      4 H1         -5.8780    8.2140    1.6120 hc        1 MOL      0.114953
      5 H2         -7.4410    9.0400    1.8090 hc        1 MOL      0.114953
      6 H3         -7.0430    7.6340    2.8260 hc        1 MOL      0.114953
      7 N1         -8.0470    5.9510    1.1200 n         1 MOL     -0.310506
      8 C3         -8.9170    5.1140    0.2860 c3        1 MOL     -0.113285
      9 C4         -8.0760    4.1930   -0.5750 c         1 MOL      0.634204
     10 O2         -8.5920    3.7220   -1.6570 o         1 MOL     -0.587020
     11 C5         -9.9410    4.3700    1.1180 c3        1 MOL     -0.197823
     12 C6        -11.3020    4.4150    0.4050 c         1 MOL      0.737227
     13 O3        -12.0080    3.3920    0.2010 o         1 MOL     -0.729629
     14 O4        -11.8540    5.5430    0.3060 o         1 MOL     -0.729629
     15 H4         -8.0060    5.6190    2.0700 hn        1 MOL      0.216296
     16 H5         -9.4080    5.7080   -0.4820 h1        1 MOL      0.121124
     17 H6        -10.1600    4.9650    2.0040 hc        1 MOL      0.030749
     18 H7         -9.6690    3.3530    1.3940 hc        1 MOL      0.030749
     19 N2         -6.8860    3.8530   -0.1580 n         1 MOL     -0.504752
     20 C7         -5.8880    3.0740   -0.9260 c3        1 MOL      0.144029
     21 C8         -4.8730    2.2730    0.0080 c         1 MOL      0.518453
     22 O5         -4.3370    2.8060    0.9940 o         1 MOL     -0.540067
     23 C9         -5.1910    4.1040   -1.8710 c3        1 MOL     -0.313862
     24 H8         -6.5850    4.2380    0.7320 hn        1 MOL      0.248095
     25 H9         -6.3860    2.4090   -1.6380 h1        1 MOL      0.077564
     26 H10        -5.9260    4.6610   -2.4610 hc        1 MOL      0.098325
     27 H11        -4.6560    4.8020   -1.2230 hc        1 MOL      0.098325
     28 H12        -4.5840    3.6250   -2.6360 hc        1 MOL      0.098325
     29 N3         -4.6250    0.9910   -0.1380 n         1 MOL     -0.290438
     30 C10        -5.3130    0.0460   -1.0670 c3        1 MOL     -0.047830
     31 C11        -5.4700   -1.3600   -0.5220 c         1 MOL      0.486568
     32 O6         -4.6720   -1.6720    0.4240 o         1 MOL     -0.501554
     33 C12        -4.6420   -0.0090   -2.4470 c3        1 MOL     -0.129376
     34 C13        -3.1220   -0.3620   -2.3610 c         1 MOL      0.666307
     35 O7         -2.3110    0.5010   -2.0620 o         1 MOL     -0.722586
     36 O8         -2.7970   -1.5790   -2.5070 o         1 MOL     -0.722586
     37 H13        -4.2510    0.6600    0.7360 hn        1 MOL      0.223720
     38 H14        -6.3320    0.3460   -1.3420 h1        1 MOL      0.035857
     39 H15        -4.7320    0.9850   -2.8890 hc        1 MOL      0.044281
     40 H16        -5.1930   -0.6780   -3.1100 hc        1 MOL      0.044281
     41 N4         -6.4800   -2.1430   -0.9220 n         1 MOL     -0.417920
     42 C14        -6.8400   -3.4360   -0.3580 c3        1 MOL      0.096489
     43 C15        -6.6880   -4.6550   -1.2530 c         1 MOL      0.461435
     44 O9         -7.7160   -5.1630   -1.6230 o         1 MOL     -0.546481
     45 H17        -7.0400   -1.8150   -1.6920 hn        1 MOL      0.332185
     46 H18        -7.8980   -3.2420   -0.1520 h1        1 MOL      0.050226
     47 H19        -6.3530   -3.6370    0.6000 h1        1 MOL      0.050226
     48 N5         -5.5310   -5.3020   -1.3880 n         1 MOL     -0.369916
     49 C16        -4.2140   -4.8540   -0.9720 c3        1 MOL      0.014905
     50 C17        -3.7840   -5.3050    0.4490 c         1 MOL      0.357886
     51 O10        -3.3220   -6.4430    0.6770 o         1 MOL     -0.508047
     52 C18        -3.1780   -5.1200   -2.0620 c3        1 MOL     -0.051118
     53 C19        -1.8420   -4.3840   -1.8000 c         1 MOL      0.511605
     54 N6         -0.9390   -4.3750   -2.7400 n         1 MOL     -0.748634
     55 O11        -1.6900   -3.8230   -0.6780 o         1 MOL     -0.503178
     56 H20        -5.5590   -6.1040   -2.0010 hn        1 MOL      0.281760
     57 H21        -4.3030   -3.7740   -0.8350 h1        1 MOL      0.048342
     58 H22        -3.5820   -4.8930   -3.0510 hc        1 MOL      0.041670
     59 H23        -2.8790   -6.1750   -2.1120 hc        1 MOL      0.041670
     60 H24        -1.0790   -4.7990   -3.6440 hn        1 MOL      0.360479
     61 H25        -0.0060   -4.0650   -2.5170 hn        1 MOL      0.360479
     62 N7         -3.9200   -4.4540    1.4070 n         1 MOL     -0.059433
     63 C20        -3.5260   -4.7750    2.8040 c3        1 MOL     -0.466133
     64 C21        -1.9890   -5.0420    2.9650 c         1 MOL      0.622497
     65 O12        -1.5420   -5.7920    3.8350 o         1 MOL     -0.594438
     66 H26        -4.3640   -3.5520    1.2910 hn        1 MOL      0.199655
     67 H27        -4.1020   -5.6780    3.0390 h1        1 MOL      0.171439
     68 H28        -3.7450   -3.8830    3.4000 h1        1 MOL      0.171439
     69 N8         -1.2000   -4.4140    2.1670 n         1 MOL     -0.370079
     70 C22         0.2370   -4.7310    2.0590 c3        1 MOL      0.087178
     71 C23         1.0480   -3.4740    1.8230 c         1 MOL      0.250427
     72 O13         0.5250   -2.5770    1.1160 o         1 MOL     -0.397321
     73 C24         0.4410   -5.8200    0.9200 c3        1 MOL      0.425593
     74 C25         1.8610   -6.4650    1.0910 c3        1 MOL     -0.367902
     75 O14        -0.4260   -6.9110    0.9830 oh        1 MOL     -0.591844
     76 H29        -1.6200   -3.8710    1.4310 hn        1 MOL      0.229571
     77 H30         0.6410   -5.1700    2.9660 h1        1 MOL      0.032843
     78 H31         0.3450   -5.3440   -0.0570 h1        1 MOL      0.034352
     79 H32        -1.2940   -6.5340    1.0830 ho        1 MOL      0.350769
     80 H33         2.6570   -5.7240    1.0340 hc        1 MOL      0.084784
     81 H34         1.9940   -6.9150    2.0750 hc        1 MOL      0.084784
     82 H35         1.9450   -7.2130    0.2960 hc        1 MOL      0.084784
     83 N9          2.2720   -3.4280    2.2880 n         1 MOL     -0.204280
     84 C26         3.1310   -2.2090    2.2210 c3        1 MOL      0.105936
     85 C27         4.0480   -2.4540    1.0230 c         1 MOL      0.390911
     86 O15         5.0830   -3.1090    1.1870 o         1 MOL     -0.594665
     87 C28         3.8050   -1.9480    3.5850 c3        1 MOL      0.096784
     88 C29         4.5930   -0.6040    3.3870 c3        1 MOL      0.448328
     89 C30         2.8600   -1.7350    4.8190 c3        1 MOL     -0.437063
     90 C31         5.7040   -0.4990    4.5190 c3        1 MOL     -0.206736
     91 H36         2.7680   -4.2660    2.5710 hn        1 MOL      0.228020
     92 H37         2.5530   -1.3190    1.9700 h1        1 MOL      0.019496
     93 H38         4.5730   -2.6970    3.7740 hc        1 MOL     -0.024232
     94 H39         3.9300    0.2620    3.4860 hc        1 MOL     -0.162750
     95 H40         5.0770   -0.5290    2.4150 hc        1 MOL     -0.162750
     96 H41         3.4160   -1.6980    5.7460 hc        1 MOL      0.110607
     97 H42         2.2790   -0.8110    4.7500 hc        1 MOL      0.110607
     98 H43         2.1520   -2.5670    4.8130 hc        1 MOL      0.110607
     99 H44         5.2600   -0.4370    5.5070 hc        1 MOL      0.029476
    100 H45         6.3320   -1.3820    4.4720 hc        1 MOL      0.029476
    101 H46         6.3610    0.3440    4.2590 hc        1 MOL      0.029476
    102 N10         3.7500   -2.0670   -0.2280 n         1 MOL     -0.284665
    103 C32         4.4700   -2.5090   -1.4180 c3        1 MOL      0.205323
    104 C33         5.4830   -1.4840   -1.9120 c         1 MOL      0.527909
    105 O16         5.8430   -1.5880   -3.0940 o         1 MOL     -0.545977
    106 C34         3.4140   -2.7580   -2.5230 c3        1 MOL     -0.413914
    107 C35         2.1990   -3.5620   -2.1800 c         1 MOL      0.726995
    108 O17         2.2180   -4.8540   -2.0330 o         1 MOL     -0.682296
    109 O18         1.1490   -2.9440   -1.9020 o         1 MOL     -0.682296
    110 H47         2.9600   -1.4360   -0.2640 hn        1 MOL      0.194395
    111 H48         5.0260   -3.4190   -1.1950 h1        1 MOL      0.083170
    112 H49         3.8460   -3.2190   -3.4110 hc        1 MOL      0.103601
    113 H50         3.0630   -1.7320   -2.6770 hc        1 MOL      0.103601
    114 N11         6.0060   -0.6310   -0.9980 n         1 MOL     -0.666378
    115 C36         7.0150    0.4560   -1.2600 c3        1 MOL      0.625568
    116 C37         6.6230    1.7020   -0.5520 c         1 MOL      0.222955
    117 O19         6.2770    1.6570    0.6240 o         1 MOL     -0.459367
    118 C38         8.3980   -0.0020   -0.7110 c3        1 MOL     -0.487894
    119 C39         9.3880    1.1400   -0.7350 ca        1 MOL      0.225353
    120 C40         9.5870    2.0160    0.3650 ca        1 MOL     -0.233239
    121 C41        10.1300    1.4330   -1.9160 ca        1 MOL     -0.233239
    122 C42        10.3840    3.2160    0.2320 ca        1 MOL     -0.097319
    123 C43        10.8990    2.6270   -2.0630 ca        1 MOL     -0.097319
    124 C44        11.0170    3.5240   -0.9990 ca        1 MOL     -0.119214
    125 H51         5.8180   -0.7270   -0.0110 hn        1 MOL      0.337252
    126 H52         7.1160    0.7090   -2.3120 h1        1 MOL     -0.097095
    127 H53         8.8410   -0.8700   -1.2190 hc        1 MOL      0.159686
    128 H54         8.2560   -0.1380    0.3640 hc        1 MOL      0.159686
    129 H55         9.0780    1.8000    1.2890 ha        1 MOL      0.131446
    130 H56         9.9370    0.7540   -2.7300 ha        1 MOL      0.131446
    131 H57        10.4610    3.9430    1.0340 ha        1 MOL      0.109108
    132 H58        11.3500    2.9090   -2.9950 ha        1 MOL      0.109108
    133 H59        11.6440    4.3730   -1.2260 ha        1 MOL      0.103052
    134 N12         6.7960    2.8930   -1.2130 n         1 MOL      0.119250
    135 C45         6.7760    4.1590   -0.5050 c3        1 MOL     -0.380861
    136 C46         5.3950    4.5650    0.1340 c         1 MOL      0.691766
    137 O20         5.3310    5.5880    0.7300 o         1 MOL     -0.543923
    138 C47         7.2210    5.2000   -1.5950 c3        1 MOL      0.008368
    139 C48         6.7000    4.5590   -2.9320 c3        1 MOL     -0.093521
    140 C49         6.8120    3.0720   -2.6710 c3        1 MOL     -0.243246
    141 H60         7.4920    4.0760    0.3080 h1        1 MOL      0.144589
    142 H61         6.9750    6.2470   -1.4020 hc        1 MOL      0.051611
    143 H62         8.3060    5.1140   -1.6340 hc        1 MOL      0.051611
    144 H63         5.6540    4.8390   -3.0620 hc        1 MOL      0.057480
    145 H64         7.3730    4.8870   -3.7200 hc        1 MOL      0.057480
    146 H65         6.0450    2.4520   -3.1430 h1        1 MOL      0.118422
    147 H66         7.7850    2.8020   -3.0970 h1        1 MOL      0.118422
    148 N13         4.3110    3.7810   -0.0270 n         1 MOL     -0.355456
    149 C50         3.0030    4.2510    0.4670 c3        1 MOL     -0.222960
    150 C51         3.0060    4.6100    1.9940 c         1 MOL      0.565210
    151 O21         2.3000    5.4980    2.4140 o         1 MOL     -0.543143
    152 C52         1.9660    3.2270    0.1180 c3        1 MOL      0.037323
    153 C53         2.1960    1.9240    0.8780 c3        1 MOL     -0.026151
    154 C54         1.2940    0.9070    0.2480 c         1 MOL      0.598581
    155 O22         1.7180    0.0530   -0.5640 o         1 MOL     -0.699691
    156 O23         0.0680    0.8850    0.5240 o         1 MOL     -0.699691
    157 H67         4.4260    2.8570   -0.4130 hn        1 MOL      0.241513
    158 H68         2.6740    5.0810   -0.1580 h1        1 MOL      0.129305
    159 H69         2.0490    3.0560   -0.9600 hc        1 MOL      0.039180
    160 H70         0.9760    3.6510    0.3000 hc        1 MOL      0.039180
    161 H71         1.9440    2.0940    1.9220 hc        1 MOL      0.017903
    162 H72         3.2240    1.5950    0.6920 hc        1 MOL      0.017903
    163 N14         3.9440    4.0960    2.8030 n         1 MOL     -0.209388
    164 C55         4.1180    4.5290    4.2310 c3        1 MOL     -0.082350
    165 H73         4.8950    5.2910    4.2870 h1        1 MOL      0.064782
    166 H74         3.1790    4.9390    4.6050 h1        1 MOL      0.064782
    167 H75         4.4070    3.6710    4.8380 h1        1 MOL      0.064782
    168 H76         4.6730    3.6490    2.2580 hn        1 MOL      0.161137
    169 Ca1        -0.4530   -1.1380   -1.2230 Ca        1 MOL      1.752930
    170 O24        -2.0400   -1.2380    1.1710 oh        1 MOL     -0.954065
    171 H77        -1.9250   -0.4590    1.7110 ho        1 MOL      0.447383
    172 H78        -2.9890   -1.4240    1.2230 ho        1 MOL      0.447383
    173 O25         0.3880   -0.3280   -3.6730 oh        1 MOL     -0.954065
    174 H79        -0.3490   -0.0480   -4.2190 ho        1 MOL      0.447383
    175 H80         1.1650   -0.1370   -4.1950 ho        1 MOL      0.447383
@<TRIPOS>BOND
     1    1    2 1   
     2    1    4 1   
     3    1    5 1   
     4    1    6 1   
     5    2    3 2   
     6    2    7 1   
     7    7    8 1   
     8    7   15 1   
     9    8    9 1   
    10    8   11 1   
    11    8   16 1   
    12    9   10 2   
    13    9   19 1   
    14   11   12 1   
    15   11   17 1   
    16   11   18 1   
    17   12   13 1   
    18   12   14 1   
    19   19   20 1   
    20   19   24 1   
    21   20   21 1   
    22   20   23 1   
    23   20   25 1   
    24   21   22 2   
    25   21   29 1   
    26   23   26 1   
    27   23   27 1   
    28   23   28 1   
    29   29   30 1   
    30   29   37 1   
    31   30   31 1   
    32   30   33 1   
    33   30   38 1   
    34   31   32 2   
    35   31   41 1   
    36   33   34 1   
    37   33   39 1   
    38   33   40 1   
    39   34   35 1   
    40   34   36 1   
    41   41   42 1   
    42   41   45 1   
    43   42   43 1   
    44   42   46 1   
    45   42   47 1   
    46   43   44 2   
    47   43   48 1   
    48   48   49 1   
    49   48   56 1   
    50   49   50 1   
    51   49   52 1   
    52   49   57 1   
    53   50   51 2   
    54   50   62 1   
    55   52   53 1   
    56   52   58 1   
    57   52   59 1   
    58   53   54 1   
    59   53   55 2   
    60   54   60 1   
    61   54   61 1   
    62   62   63 1   
    63   62   66 1   
    64   63   64 1   
    65   63   67 1   
    66   63   68 1   
    67   64   65 2   
    68   64   69 1   
    69   69   70 1   
    70   69   76 1   
    71   70   71 1   
    72   70   73 1   
    73   70   77 1   
    74   71   72 2   
    75   71   83 1   
    76   73   74 1   
    77   73   75 1   
    78   73   78 1   
    79   74   80 1   
    80   74   81 1   
    81   74   82 1   
    82   75   79 1   
    83   83   84 1   
    84   83   91 1   
    85   84   85 1   
    86   84   87 1   
    87   84   92 1   
    88   85   86 2   
    89   85  102 1   
    90   87   88 1   
    91   87   89 1   
    92   87   93 1   
    93   88   90 1   
    94   88   94 1   
    95   88   95 1   
    96   89   96 1   
    97   89   97 1   
    98   89   98 1   
    99   90   99 1   
   100   90  100 1   
   101   90  101 1   
   102  102  103 1   
   103  102  110 1   
   104  103  104 1   
   105  103  106 1   
   106  103  111 1   
   107  104  105 2   
   108  104  114 1   
   109  106  107 1   
   110  106  112 1   
   111  106  113 1   
   112  107  108 1   
   113  107  109 1   
   114  114  115 1   
   115  114  125 1   
   116  115  116 1   
   117  115  118 1   
   118  115  126 1   
   119  116  117 2   
   120  116  134 1   
   121  118  119 1   
   122  118  127 1   
   123  118  128 1   
   124  119  120 ar  
   125  119  121 ar  
   126  120  122 ar  
   127  120  129 1   
   128  121  123 ar  
   129  121  130 1   
   130  122  124 ar  
   131  122  131 1   
   132  123  124 ar  
   133  123  132 1   
   134  124  133 1   
   135  134  135 1   
   136  134  140 1   
   137  135  136 1   
   138  135  138 1   
   139  135  141 1   
   140  136  137 2   
   141  136  148 1   
   142  138  139 1   
   143  138  142 1   
   144  138  143 1   
   145  139  140 1   
   146  139  144 1   
   147  139  145 1   
   148  140  146 1   
   149  140  147 1   
   150  148  149 1   
   151  148  157 1   
   152  149  150 1   
   153  149  152 1   
   154  149  158 1   
   155  150  151 2   
   156  150  163 1   
   157  152  153 1   
   158  152  159 1   
   159  152  160 1   
   160  153  154 1   
   161  153  161 1   
   162  153  162 1   
   163  154  155 1   
   164  154  156 1   
   165  163  164 1   
   166  163  168 1   
   167  164  165 1   
   168  164  166 1   
   169  164  167 1   
   170  170  171 1   
   171  170  172 1   
   172  173  174 1   
   173  173  175 1   
@<TRIPOS>SUBSTRUCTURE
     1 MOL         1 TEMP              0 ****  ****    0 ROOT
