@<TRIPOS>MOLECULE
MOL
  186   183     1     0     0
SMALL
resp


@<TRIPOS>ATOM
      1 C1         -6.8170    3.5410    3.6040 c3        1 MOL     -0.575098
      2 C2         -6.8820    2.5830    2.4200 c         1 MOL      0.685318
      3 O1         -5.9300    2.5930    1.6000 o         1 MOL     -0.581503
      4 H1         -6.0440    3.2090    4.2970 hc        1 MOL      0.146989
      5 H2         -6.5800    4.5440    3.2490 hc        1 MOL      0.146989
      6 H3         -7.7810    3.5540    4.1140 hc        1 MOL      0.146989
      7 N1         -7.9090    1.7590    2.1770 n         1 MOL     -0.388268
      8 C3         -7.9880    0.6180    1.2680 c3        1 MOL      0.149477
      9 C4         -6.6590   -0.1440    1.1290 c         1 MOL     -0.053207
     10 O2         -6.0460   -0.2600    0.0390 o         1 MOL     -0.473146
     11 C5         -8.7340    1.0010   -0.0160 c3        1 MOL     -0.178617
     12 C6         -8.3060    2.2480   -0.8610 c         1 MOL      0.714792
     13 O3         -7.1040    2.5400   -0.9490 o         1 MOL     -0.721697
     14 O4         -9.2390    3.0170   -1.2560 o         1 MOL     -0.721697
     15 H4         -8.6140    1.7180    2.8930 hn        1 MOL      0.238633
     16 H5         -8.5470   -0.1980    1.7100 h1        1 MOL      0.098460
     17 H6         -9.7840    1.0970    0.2660 hc        1 MOL      0.048455
     18 H7         -8.6070    0.1600   -0.6990 hc        1 MOL      0.048455
     19 N2         -6.2380   -0.8230    2.1940 n         1 MOL     -0.194240
     20 C7         -5.0380   -1.7510    2.3870 c3        1 MOL     -0.013686
     21 C8         -5.0510   -3.0580    1.5480 c         1 MOL      0.437482
     22 O5         -4.5170   -4.0650    1.9250 o         1 MOL     -0.496535
     23 C9         -3.7780   -0.9050    2.4030 c3        1 MOL      0.077340
     24 C10        -2.4790   -1.7220    2.6100 c3        1 MOL     -0.182884
     25 C11        -3.8790    0.2660    3.3690 c3        1 MOL     -0.122787
     26 C12        -2.3700   -2.5070    3.8930 c3        1 MOL     -0.216641
     27 H8         -6.8750   -0.7170    2.9760 hn        1 MOL      0.217065
     28 H9         -5.1730   -2.1530    3.3870 h1        1 MOL      0.064546
     29 H10        -3.6150   -0.4200    1.4390 hc        1 MOL      0.246884
     30 H11        -1.7120   -0.9480    2.5050 hc        1 MOL      0.133346
     31 H12        -2.2890   -2.3840    1.7680 hc        1 MOL      0.133346
     32 H13        -4.6750    0.9190    3.0150 hc        1 MOL      0.007462
     33 H14        -4.2450   -0.0450    4.3450 hc        1 MOL      0.007462
     34 H15        -2.9080    0.7420    3.4680 hc        1 MOL      0.007462
     35 H16        -3.1020   -3.3090    3.8460 hc        1 MOL      0.040119
     36 H17        -1.4030   -3.0070    3.7990 hc        1 MOL      0.040119
     37 H18        -2.5510   -1.9290    4.8080 hc        1 MOL      0.040119
     38 N3         -5.6840   -2.9900    0.3840 n         1 MOL     -0.407953
     39 C13        -6.2370   -4.2160   -0.3030 c3        1 MOL      0.132847
     40 C14        -5.2080   -5.3850   -0.6000 c         1 MOL      0.455864
     41 O6         -5.4870   -6.5840   -0.3230 o         1 MOL     -0.567664
     42 C15        -7.0360   -3.7130   -1.5380 c3        1 MOL     -0.350197
     43 C16        -8.1560   -2.6740   -1.1810 c         1 MOL      0.835812
     44 O7         -8.6810   -2.1710   -2.1680 o         1 MOL     -0.725742
     45 O8         -8.6680   -2.4780   -0.0620 o         1 MOL     -0.725742
     46 H19        -5.8740   -2.0870   -0.0340 hn        1 MOL      0.403751
     47 H20        -7.0280   -4.7010    0.2770 h1        1 MOL      0.038576
     48 H21        -7.5800   -4.5960   -1.8880 hc        1 MOL      0.079702
     49 H22        -6.3510   -3.3420   -2.3060 hc        1 MOL      0.079702
     50 N4         -3.9530   -5.1030   -1.0820 n         1 MOL     -0.432290
     51 C17        -3.3380   -3.8650   -1.4650 c3        1 MOL      0.018977
     52 C18        -2.1680   -3.9380   -2.5010 c         1 MOL      0.612265
     53 O9         -1.6830   -5.0160   -2.7690 o         1 MOL     -0.579052
     54 H23        -3.3600   -5.9140   -1.1810 hn        1 MOL      0.270059
     55 H24        -2.8930   -3.3480   -0.6130 h1        1 MOL      0.085541
     56 H25        -4.1120   -3.2420   -1.9010 h1        1 MOL      0.085541
     57 N5         -1.7930   -2.8860   -3.2440 n         1 MOL     -0.664336
     58 C19        -2.1870   -1.4470   -3.1480 c3        1 MOL      0.200374
     59 C20        -2.2200   -1.0590   -1.6570 c         1 MOL      0.655373
     60 O10        -3.2830   -0.6730   -1.1300 o         1 MOL     -0.765942
     61 C21        -3.4880   -1.0850   -3.9880 c3        1 MOL     -0.054925
     62 C22        -3.9690    0.3510   -3.6860 c         1 MOL      0.641634
     63 O11        -4.8520    0.6580   -2.8060 o         1 MOL     -0.668261
     64 O12        -3.4160    1.2510   -4.3230 o         1 MOL     -0.668261
     65 H26        -1.2040   -3.0270   -4.0430 hn        1 MOL      0.334798
     66 H27        -1.3640   -0.8280   -3.5030 h1        1 MOL      0.059055
     67 H28        -4.3270   -1.7540   -3.8170 hc        1 MOL      0.009466
     68 H29        -3.1900   -1.2180   -5.0260 hc        1 MOL      0.009466
     69 N6         -1.1610   -1.2400   -0.8560 n         1 MOL     -0.359878
     70 C23         0.3530   -1.5400   -1.2130 c3        1 MOL     -0.041569
     71 C24         1.0420   -2.6230   -0.3160 c         1 MOL      0.512896
     72 O13         0.4320   -3.2910    0.5430 o         1 MOL     -0.484306
     73 H30        -1.3670   -1.1040    0.1210 hn        1 MOL      0.101370
     74 H31         0.9020   -0.6000   -1.1510 h1        1 MOL      0.062985
     75 H32         0.3300   -1.8210   -2.2670 h1        1 MOL      0.062985
     76 N7          2.3030   -2.9880   -0.6230 n         1 MOL     -0.363536
     77 C25         3.0370   -4.0220    0.0380 c3        1 MOL     -0.069624
     78 C26         3.5640   -3.6770    1.4020 c         1 MOL      0.366746
     79 O14         4.1600   -4.5820    1.9940 o         1 MOL     -0.518486
     80 C27         4.0480   -4.5710   -0.9840 c3        1 MOL     -0.111332
     81 C28         5.2780   -3.6900   -1.3710 c3        1 MOL     -0.063242
     82 C29         6.4440   -4.5680   -1.8180 c         1 MOL      0.573953
     83 N8          7.4940   -4.6260   -1.0180 n         1 MOL     -0.642627
     84 O15         6.2940   -5.2660   -2.8290 o         1 MOL     -0.590091
     85 H33         2.7010   -2.4730   -1.3960 hn        1 MOL      0.239161
     86 H34         2.3460   -4.8580    0.1650 h1        1 MOL      0.147123
     87 H35         3.5480   -4.8760   -1.9100 hc        1 MOL      0.074483
     88 H36         4.5070   -5.4320   -0.5200 hc        1 MOL      0.074483
     89 H37         5.5010   -3.0420   -0.5260 hc        1 MOL      0.046569
     90 H38         5.0030   -3.0920   -2.2480 hc        1 MOL      0.046569
     91 H39         7.4580   -4.0750   -0.1750 hn        1 MOL      0.314986
     92 H40         8.1280   -5.3730   -1.2600 hn        1 MOL      0.314986
     93 N9          3.3330   -2.4860    1.8740 n         1 MOL      0.004732
     94 C30         3.5210   -1.9370    3.2160 c3        1 MOL      0.001148
     95 C31         4.8790   -1.1890    3.3510 c         1 MOL      0.493737
     96 O16         5.5010   -1.3510    4.4250 o         1 MOL     -0.567299
     97 C32         2.3440   -1.1220    3.8260 c3        1 MOL      0.005797
     98 C33         1.3510   -2.0130    4.5550 c3        1 MOL     -0.188511
     99 C34         1.7260   -0.2460    2.8030 c3        1 MOL     -0.188511
    100 H41         2.8500   -1.8610    1.2580 hn        1 MOL      0.055633
    101 H42         3.7290   -2.7760    3.8820 h1        1 MOL      0.083258
    102 H43         2.7780   -0.3640    4.4830 hc        1 MOL      0.046653
    103 H44         1.8140   -2.7590    5.1950 hc        1 MOL      0.059777
    104 H45         0.6690   -1.4250    5.1680 hc        1 MOL      0.059777
    105 H46         0.7910   -2.5670    3.7950 hc        1 MOL      0.059777
    106 H47         1.4130   -0.8310    1.9410 hc        1 MOL      0.059777
    107 H48         0.7670    0.0860    3.1920 hc        1 MOL      0.059777
    108 H49         2.3660    0.5360    2.3920 hc        1 MOL      0.059777
    109 N10         5.4380   -0.5970    2.3230 n         1 MOL     -0.413071
    110 C35         6.7530    0.0790    2.3550 c3        1 MOL      0.230054
    111 C36         6.7900    1.4160    1.5910 c         1 MOL      0.347349
    112 O17         7.5320    2.3790    1.8360 o         1 MOL     -0.528611
    113 C37         7.8120   -0.8210    1.7560 c3        1 MOL     -0.227507
    114 C38         7.7930   -2.2150    2.2420 c         1 MOL      0.541348
    115 N11         8.0840   -2.4620    3.5160 n         1 MOL     -0.720884
    116 O18         7.6120   -3.1620    1.4810 o         1 MOL     -0.502738
    117 H50         4.9030   -0.5270    1.4670 hn        1 MOL      0.198089
    118 H51         7.1140    0.2870    3.3670 h1        1 MOL      0.036486
    119 H52         8.7760   -0.3740    2.0180 hc        1 MOL      0.080172
    120 H53         7.6830   -0.8560    0.6700 hc        1 MOL      0.080172
    121 H54         8.2630   -1.6960    4.1510 hn        1 MOL      0.363621
    122 H55         8.1770   -3.4190    3.8200 hn        1 MOL      0.363621
    123 N12         6.0500    1.4010    0.4910 n         1 MOL     -0.330995
    124 C39         5.9770    2.5440   -0.5130 c3        1 MOL      0.447720
    125 C40         4.5190    2.9860   -0.5830 c         1 MOL      0.164401
    126 O19         3.6000    2.1820   -0.4510 o         1 MOL     -0.449120
    127 C41         6.4450    2.1540   -1.9170 c3        1 MOL     -0.153499
    128 C42         7.6760    1.2940   -1.9400 ca        1 MOL      0.031191
    129 C43         7.5300   -0.1040   -1.8910 ca        1 MOL     -0.123928
    130 C44         8.8660    1.9550   -2.0480 ca        1 MOL     -0.123928
    131 C45         8.7290   -0.7880   -2.1710 ca        1 MOL     -0.270869
    132 C46        10.0780    1.2690   -2.1600 ca        1 MOL     -0.270869
    133 C47        10.0370   -0.1320   -2.2190 ca        1 MOL      0.355527
    134 O20        11.2270   -0.7430   -2.3700 oh        1 MOL     -0.514123
    135 H56         5.5390    0.5540    0.3360 hn        1 MOL      0.231183
    136 H57         6.6770    3.3170   -0.1770 h1        1 MOL     -0.024920
    137 H58         6.6300    3.0860   -2.4320 hc        1 MOL      0.057620
    138 H59         5.6130    1.6280   -2.3850 hc        1 MOL      0.057620
    139 H60         6.5520   -0.5720   -1.8610 ha        1 MOL      0.109642
    140 H61         8.8270    3.0330   -2.1450 ha        1 MOL      0.109642
    141 H62         8.7660   -1.8680   -2.1680 ha        1 MOL      0.119050
    142 H63        11.0280    1.7670   -2.3030 ha        1 MOL      0.119050
    143 H64        11.9600   -0.1250   -2.3980 ho        1 MOL      0.375432
    144 N13         4.3220    4.2920   -0.8610 n         1 MOL     -0.414186
    145 C48         3.1460    5.0820   -1.2020 c3        1 MOL      0.015659
    146 C49         1.8360    5.1430   -0.3530 c         1 MOL      0.717875
    147 O21         1.2000    6.1590   -0.4830 o         1 MOL     -0.587012
    148 C50         2.8110    4.9400   -2.6850 c3        1 MOL      0.042279
    149 C51         2.1510    3.5720   -3.0910 c3        1 MOL     -0.320483
    150 C52         1.5580    3.4180   -4.5310 c         1 MOL      0.728508
    151 O22         0.3260    3.5070   -4.7550 o         1 MOL     -0.709839
    152 O23         2.3620    3.2640   -5.4900 o         1 MOL     -0.709839
    153 H65         5.1910    4.8180   -0.8540 hn        1 MOL      0.292534
    154 H66         3.4020    6.1380   -1.1540 h1        1 MOL      0.011682
    155 H67         3.7380    5.0490   -3.2550 hc        1 MOL      0.015537
    156 H68         2.1300    5.7300   -3.0070 hc        1 MOL      0.015537
    157 H69         1.3880    3.4320   -2.3360 hc        1 MOL      0.081535
    158 H70         2.9260    2.8030   -3.0020 hc        1 MOL      0.081535
    159 N14         1.4990    4.1830    0.4700 n         1 MOL     -0.596468
    160 C53         0.2610    4.1200    1.3040 c3        1 MOL     -0.043268
    161 C54         0.3280    5.0310    2.4880 c         1 MOL      0.398565
    162 O24        -0.6270    5.0640    3.2640 o         1 MOL     -0.515672
    163 C55         0.0840    2.7050    1.7720 c3        1 MOL     -0.056943
    164 C56        -0.3440    1.7020    0.6160 c3        1 MOL      0.224594
    165 C57        -1.7870    1.8860    0.2070 c         1 MOL      0.740624
    166 O25        -2.6910    2.0160    1.0370 o         1 MOL     -0.734707
    167 O26        -2.0100    2.0250   -1.0550 o         1 MOL     -0.734707
    168 H71         2.0580    3.3490    0.3200 hn        1 MOL      0.365159
    169 H72        -0.6380    4.4190    0.7600 h1        1 MOL      0.186265
    170 H73        -0.6450    2.6290    2.5850 hc        1 MOL      0.015317
    171 H74         1.0360    2.3020    2.1090 hc        1 MOL      0.015317
    172 H75        -0.2990    0.6880    1.0170 hc        1 MOL     -0.097556
    173 H76         0.2940    1.8780   -0.2500 hc        1 MOL     -0.097556
    174 N15         1.4140    5.8070    2.7430 n         1 MOL     -0.170718
    175 C58         1.5920    6.7010    3.8840 c3        1 MOL     -0.091714
    176 H77         2.3760    6.3100    4.5320 h1        1 MOL      0.056738
    177 H78         1.8750    7.6920    3.5300 h1        1 MOL      0.056738
    178 H79         0.6590    6.7670    4.4440 h1        1 MOL      0.056738
    179 H80         2.1100    5.8670    2.0170 hn        1 MOL      0.162704
    180 Ca1        -4.6860    1.9200   -0.6750 Ca        1 MOL      1.735332
    181 O27        -4.2410    4.3500    0.0250 oh        1 MOL     -0.869815
    182 H81        -4.6280    5.2150   -0.1220 ho        1 MOL      0.420988
    183 H82        -3.9770    4.3690    0.9430 ho        1 MOL      0.420988
    184 O28        -4.1200    3.5120   -2.8880 oh        1 MOL     -0.869815
    185 H83        -3.8760    2.7690   -3.4390 ho        1 MOL      0.420988
    186 H84        -3.3960    4.1410   -3.0110 ho        1 MOL      0.420988
@<TRIPOS>BOND
     1    1    2 1   
     2    1    4 1   
     3    1    5 1   
     4    1    6 1   
     5    2    3 2   
     6    2    7 1   
     7    7    8 1   
     8    7   15 1   
     9    8    9 1   
    10    8   11 1   
    11    8   16 1   
    12    9   10 2   
    13    9   19 1   
    14   11   12 1   
    15   11   17 1   
    16   11   18 1   
    17   12   13 1   
    18   12   14 1   
    19   19   20 1   
    20   19   27 1   
    21   20   21 1   
    22   20   23 1   
    23   20   28 1   
    24   21   22 2   
    25   21   38 1   
    26   23   24 1   
    27   23   25 1   
    28   23   29 1   
    29   24   26 1   
    30   24   30 1   
    31   24   31 1   
    32   25   32 1   
    33   25   33 1   
    34   25   34 1   
    35   26   35 1   
    36   26   36 1   
    37   26   37 1   
    38   38   39 1   
    39   38   46 1   
    40   39   40 1   
    41   39   42 1   
    42   39   47 1   
    43   40   41 2   
    44   40   50 1   
    45   42   43 1   
    46   42   48 1   
    47   42   49 1   
    48   43   44 1   
    49   43   45 1   
    50   50   51 1   
    51   50   54 1   
    52   51   52 1   
    53   51   55 1   
    54   51   56 1   
    55   52   53 2   
    56   52   57 1   
    57   57   58 1   
    58   57   65 1   
    59   58   59 1   
    60   58   61 1   
    61   58   66 1   
    62   59   60 2   
    63   59   69 1   
    64   61   62 1   
    65   61   67 1   
    66   61   68 1   
    67   62   63 1   
    68   62   64 1   
    69   69   70 1   
    70   69   73 1   
    71   70   71 1   
    72   70   74 1   
    73   70   75 1   
    74   71   72 2   
    75   71   76 1   
    76   76   77 1   
    77   76   85 1   
    78   77   78 1   
    79   77   80 1   
    80   77   86 1   
    81   78   79 2   
    82   78   93 1   
    83   80   81 1   
    84   80   87 1   
    85   80   88 1   
    86   81   82 1   
    87   81   89 1   
    88   81   90 1   
    89   82   83 1   
    90   82   84 2   
    91   83   91 1   
    92   83   92 1   
    93   93   94 1   
    94   93  100 1   
    95   94   95 1   
    96   94   97 1   
    97   94  101 1   
    98   95   96 2   
    99   95  109 1   
   100   97   98 1   
   101   97   99 1   
   102   97  102 1   
   103   98  103 1   
   104   98  104 1   
   105   98  105 1   
   106   99  106 1   
   107   99  107 1   
   108   99  108 1   
   109  109  110 1   
   110  109  117 1   
   111  110  111 1   
   112  110  113 1   
   113  110  118 1   
   114  111  112 2   
   115  111  123 1   
   116  113  114 1   
   117  113  119 1   
   118  113  120 1   
   119  114  115 1   
   120  114  116 2   
   121  115  121 1   
   122  115  122 1   
   123  123  124 1   
   124  123  135 1   
   125  124  125 1   
   126  124  127 1   
   127  124  136 1   
   128  125  126 2   
   129  125  144 1   
   130  127  128 1   
   131  127  137 1   
   132  127  138 1   
   133  128  129 ar  
   134  128  130 ar  
   135  129  131 ar  
   136  129  139 1   
   137  130  132 ar  
   138  130  140 1   
   139  131  133 ar  
   140  131  141 1   
   141  132  133 ar  
   142  132  142 1   
   143  133  134 1   
   144  134  143 1   
   145  144  145 1   
   146  144  153 1   
   147  145  146 1   
   148  145  148 1   
   149  145  154 1   
   150  146  147 2   
   151  146  159 1   
   152  148  149 1   
   153  148  155 1   
   154  148  156 1   
   155  149  150 1   
   156  149  157 1   
   157  149  158 1   
   158  150  151 1   
   159  150  152 1   
   160  159  160 1   
   161  159  168 1   
   162  160  161 1   
   163  160  163 1   
   164  160  169 1   
   165  161  162 2   
   166  161  174 1   
   167  163  164 1   
   168  163  170 1   
   169  163  171 1   
   170  164  165 1   
   171  164  172 1   
   172  164  173 1   
   173  165  166 1   
   174  165  167 1   
   175  174  175 1   
   176  174  179 1   
   177  175  176 1   
   178  175  177 1   
   179  175  178 1   
   180  181  182 1   
   181  181  183 1   
   182  184  185 1   
   183  184  186 1   
@<TRIPOS>SUBSTRUCTURE
     1 MOL         1 TEMP              0 ****  ****    0 ROOT
