@<TRIPOS>MOLECULE
MOL
  188   182     1     0     0
SMALL
resp


@<TRIPOS>ATOM
      1 C1        -10.4590    6.0780    1.4700 c3        1 MOL     -0.313684
      2 C2        -10.9400    4.9370    0.6260 c         1 MOL      0.719974
      3 O1        -11.1340    5.1380   -0.5480 o         1 MOL     -0.586748
      4 H1         -9.8690    5.6920    2.3010 hc        1 MOL      0.072765
      5 H2         -9.8430    6.7430    0.8650 hc        1 MOL      0.072765
      6 H3        -11.3150    6.6290    1.8590 hc        1 MOL      0.072765
      7 N1        -11.0880    3.7500    1.1910 n         1 MOL     -0.623067
      8 C3        -11.2930    2.5000    0.3820 c3        1 MOL      0.261643
      9 C4        -10.1070    1.5610    0.7070 c         1 MOL      0.569847
     10 O2         -9.6050    1.5210    1.8310 o         1 MOL     -0.541486
     11 C5        -12.6400    2.0190    0.7560 c3        1 MOL     -0.181435
     12 C6        -12.8530    0.5820    0.2510 c         1 MOL      0.711172
     13 O3        -13.0820   -0.3650    1.0530 o         1 MOL     -0.725781
     14 O4        -12.7290    0.3330   -0.9830 o         1 MOL     -0.725781
     15 H4        -10.9510    3.6450    2.1810 hn        1 MOL      0.331402
     16 H5        -11.3220    2.6350   -0.6990 h1        1 MOL      0.035648
     17 H6        -13.3610    2.7560    0.3880 hc        1 MOL      0.038411
     18 H7        -12.7690    2.0480    1.8430 hc        1 MOL      0.038411
     19 N2         -9.6580    0.8720   -0.3940 n         1 MOL     -0.688668
     20 C7         -8.5710   -0.1610   -0.3120 c3        1 MOL      0.126950
     21 C8         -7.3440    0.3690   -1.0220 c         1 MOL      0.765318
     22 O5         -7.3940    0.9060   -2.0900 o         1 MOL     -0.587743
     23 C9         -8.9500   -1.5070   -0.9240 c3        1 MOL     -0.248387
     24 C10       -10.0360   -2.0280   -0.0850 c3        1 MOL      0.237250
     25 C11       -10.4250   -3.4900   -0.2780 c3        1 MOL     -0.047585
     26 C12       -11.4270   -3.8750    0.7660 c3        1 MOL     -0.000822
     27 N3        -12.7700   -3.3770    0.4530 n4        1 MOL     -0.237390
     28 H8        -10.1260    0.8780   -1.2910 hn        1 MOL      0.385994
     29 H9         -8.3540   -0.2980    0.7410 h1        1 MOL      0.047269
     30 H10        -8.1290   -2.2260   -0.8290 hc        1 MOL      0.072304
     31 H11        -9.2580   -1.4810   -1.9640 hc        1 MOL      0.072304
     32 H12       -10.9230   -1.4140   -0.2010 hc        1 MOL     -0.015959
     33 H13        -9.7730   -1.9540    0.9790 hc        1 MOL     -0.015959
     34 H14        -9.5360   -4.0940   -0.0860 hc        1 MOL      0.022719
     35 H15       -10.8100   -3.6800   -1.2730 hc        1 MOL      0.022719
     36 H16       -11.1020   -3.5210    1.7440 hx        1 MOL      0.067633
     37 H17       -11.5260   -4.9630    0.7750 hx        1 MOL      0.067633
     38 H18       -12.9790   -2.4750    0.8460 hn        1 MOL      0.285036
     39 H19       -12.9670   -3.2580   -0.5340 hn        1 MOL      0.285036
     40 H20       -13.5650   -3.9430    0.6800 hn        1 MOL      0.285036
     41 N4         -6.2050    0.1140   -0.3470 n         1 MOL     -0.596971
     42 C13        -4.9140    0.5560   -0.8290 c3        1 MOL      0.111434
     43 C14        -4.4680   -0.2810   -2.0670 c         1 MOL      0.382465
     44 O6         -4.4120   -1.5430   -1.9520 o         1 MOL     -0.501043
     45 C15        -3.8750    0.4580    0.2410 c3        1 MOL     -0.098570
     46 C16        -2.4360    0.7940   -0.1140 c         1 MOL      0.576984
     47 O7         -1.5860   -0.0500   -0.5520 o         1 MOL     -0.710978
     48 O8         -2.0920    2.0060    0.0140 o         1 MOL     -0.710978
     49 H21        -6.2660   -0.3120    0.5690 hn        1 MOL      0.289866
     50 H22        -5.0490    1.6080   -1.1080 h1        1 MOL      0.061353
     51 H23        -3.9480   -0.5650    0.6110 hc        1 MOL      0.066632
     52 H24        -4.1370    1.1460    1.0430 hc        1 MOL      0.066632
     53 N5         -3.9160    0.3050   -3.1040 n         1 MOL     -0.153435
     54 C17        -3.5660   -0.4320   -4.3840 c3        1 MOL     -0.300557
     55 C18        -2.4530   -1.5010   -4.3260 c         1 MOL      0.632040
     56 O9         -2.1700   -2.0280   -5.4100 o         1 MOL     -0.557179
     57 H25        -3.9300    1.3150   -3.1810 hn        1 MOL      0.204574
     58 H26        -3.3940    0.3400   -5.1440 h1        1 MOL      0.156121
     59 H27        -4.4870   -0.9020   -4.7410 h1        1 MOL      0.156121
     60 N6         -1.9180   -1.9460   -3.2080 n         1 MOL     -0.393934
     61 C19        -0.9920   -3.0680   -3.1060 c3        1 MOL      0.081455
     62 C20        -0.9520   -3.6110   -1.6390 c         1 MOL      0.370255
     63 O10        -0.0070   -4.2670   -1.1980 o         1 MOL     -0.521870
     64 C21         0.3760   -2.6160   -3.6800 c3        1 MOL     -0.328657
     65 C22         1.1530   -1.6030   -2.7380 c         1 MOL      0.492197
     66 N7          2.2100   -2.0710   -2.1750 n         1 MOL     -0.552988
     67 O11         0.8320   -0.4580   -2.4490 o         1 MOL     -0.447873
     68 H28        -1.9940   -1.3850   -2.3650 hn        1 MOL      0.126435
     69 H29        -1.3200   -3.9200   -3.7110 h1        1 MOL      0.127600
     70 H30         0.1240   -2.0850   -4.6060 hc        1 MOL      0.130393
     71 H31         0.9800   -3.4960   -3.9350 hc        1 MOL      0.130393
     72 H32         2.6270   -2.8900   -2.6060 hn        1 MOL      0.305668
     73 H33         2.6840   -1.4700   -1.5160 hn        1 MOL      0.305668
     74 N8         -1.9630   -3.3100   -0.8600 n         1 MOL     -0.115897
     75 C23        -2.2970   -3.8780    0.4760 c3        1 MOL     -0.280844
     76 C24        -1.7650   -3.1050    1.7000 c         1 MOL      0.660633
     77 O12        -2.1500   -3.4740    2.8160 o         1 MOL     -0.566134
     78 H34        -2.7360   -2.7690   -1.2230 hn        1 MOL      0.194503
     79 H35        -1.8500   -4.8510    0.6680 h1        1 MOL      0.129752
     80 H36        -3.3740   -3.9560    0.6520 h1        1 MOL      0.129752
     81 N9         -0.9580   -2.0470    1.4960 n         1 MOL     -0.564296
     82 C25        -0.2130   -1.3580    2.6030 c3        1 MOL     -0.002753
     83 C26         1.0520   -0.8800    1.8830 c         1 MOL      0.258775
     84 O13         1.0730   -0.1630    0.8660 o         1 MOL     -0.534456
     85 C27        -1.1220   -0.2480    3.2200 c3        1 MOL     -0.333723
     86 C28        -0.3480    0.7450    4.0830 ca        1 MOL      0.199088
     87 C29         0.1160    0.2670    5.3390 ca        1 MOL     -0.259012
     88 C30        -0.0070    2.0530    3.6400 ca        1 MOL     -0.259012
     89 C31         0.9590    1.0440    6.1410 ca        1 MOL     -0.223648
     90 C32         0.8460    2.8720    4.4430 ca        1 MOL     -0.223648
     91 C33         1.3850    2.3560    5.6660 ca        1 MOL      0.295430
     92 O14         2.1340    3.1120    6.4550 oh        1 MOL     -0.442818
     93 H37        -0.8630   -1.6070    0.6000 hn        1 MOL      0.453286
     94 H38         0.0890   -2.0810    3.3500 h1        1 MOL      0.124495
     95 H39        -1.8250   -0.7670    3.8560 hc        1 MOL      0.149572
     96 H40        -1.6720    0.3160    2.4630 hc        1 MOL      0.149572
     97 H41        -0.1150   -0.6530    5.8560 ha        1 MOL      0.170271
     98 H42        -0.5540    2.4260    2.7870 ha        1 MOL      0.170271
     99 H43         1.2330    0.7130    7.1300 ha        1 MOL      0.156250
    100 H44         1.0730    3.8850    4.1520 ha        1 MOL      0.156250
    101 H45         2.2050    4.0020    6.0790 ho        1 MOL      0.361414
    102 N10         2.1560   -1.2990    2.4110 n         1 MOL     -0.097393
    103 C34         3.4810   -0.9510    2.0340 c3        1 MOL     -0.103419
    104 C35         3.9440   -1.7490    0.8360 c         1 MOL      0.417193
    105 O15         4.4490   -1.2200   -0.1690 o         1 MOL     -0.505793
    106 C36         4.5040   -0.9430    3.2520 c3        1 MOL     -0.028551
    107 C37         4.0160    0.0670    4.3250 c3        1 MOL      0.011709
    108 C38         5.9170   -0.7260    2.8030 c3        1 MOL     -0.162994
    109 C39         4.9290    0.1420    5.5470 c3        1 MOL     -0.099141
    110 H46         2.0370   -2.0170    3.1160 hn        1 MOL      0.197240
    111 H47         3.4150    0.0990    1.7440 h1        1 MOL      0.187464
    112 H48         4.4710   -1.9820    3.5590 hc        1 MOL      0.000833
    113 H49         2.9590   -0.0210    4.5690 hc        1 MOL      0.017957
    114 H50         3.9710    1.0670    3.9130 hc        1 MOL      0.017957
    115 H51         6.6350   -0.9810    3.5710 hc        1 MOL      0.046510
    116 H52         6.2750   -1.4190    2.0390 hc        1 MOL      0.046510
    117 H53         6.0890    0.2850    2.4160 hc        1 MOL      0.046510
    118 H54         5.9440    0.4190    5.2680 hc        1 MOL      0.038032
    119 H55         4.5410    0.8040    6.3180 hc        1 MOL      0.038032
    120 H56         4.9940   -0.8010    6.0880 hc        1 MOL      0.038032
    121 N11         3.8540   -3.1110    0.9330 n         1 MOL     -0.322127
    122 C40         4.3140   -4.1100   -0.0600 c3        1 MOL     -0.035597
    123 C41         5.7900   -3.7950   -0.5000 c         1 MOL      0.439792
    124 O16         6.1390   -4.0170   -1.6540 o         1 MOL     -0.518033
    125 C42         4.2690   -5.5340    0.5480 c3        1 MOL      0.049998
    126 O17         5.0310   -5.5130    1.7770 oh        1 MOL     -0.661998
    127 H57         3.2450   -3.3780    1.6910 hn        1 MOL      0.266664
    128 H58         3.6410   -4.0220   -0.9130 h1        1 MOL      0.067505
    129 H59         4.6650   -6.2430   -0.1630 h1        1 MOL      0.094415
    130 H60         3.2430   -5.8300    0.7500 h1        1 MOL      0.094415
    131 H61         4.7550   -6.2130    2.3730 ho        1 MOL      0.440219
    132 N12         6.6440   -3.5310    0.5010 n         1 MOL      0.001849
    133 C43         8.0730   -3.3050    0.4310 c3        1 MOL      0.054918
    134 C44         8.4440   -2.1680   -0.5280 c         1 MOL      0.529883
    135 O18         9.6190   -1.9750   -0.8750 o         1 MOL     -0.554918
    136 C45         8.8680   -4.6080    0.3530 c3        1 MOL     -0.587680
    137 H62         6.2910   -3.7830    1.4150 hn        1 MOL      0.181340
    138 H63         8.2920   -2.9410    1.4370 h1        1 MOL      0.086630
    139 H64         8.7390   -4.9860   -0.6600 hc        1 MOL      0.171126
    140 H65         9.8510   -4.2020    0.5880 hc        1 MOL      0.171126
    141 H66         8.5400   -5.3520    1.0810 hc        1 MOL      0.171126
    142 N13         7.5410   -1.3100   -0.9180 n         1 MOL     -0.486305
    143 C46         7.7200   -0.1930   -1.8750 c3        1 MOL      0.266475
    144 C47         8.3930    0.9870   -1.1010 c         1 MOL      0.270510
    145 O19         7.9430    1.4610   -0.0490 o         1 MOL     -0.420642
    146 C48         6.3740    0.1590   -2.5230 c3        1 MOL     -0.365666
    147 H67         6.5650   -1.5470   -0.7910 hn        1 MOL      0.258391
    148 H68         8.4320   -0.5620   -2.6090 h1        1 MOL      0.046558
    149 H69         5.6020    0.2620   -1.7520 hc        1 MOL      0.098297
    150 H70         6.5300    1.0020   -3.1980 hc        1 MOL      0.098297
    151 H71         6.1200   -0.6860   -3.1690 hc        1 MOL      0.098297
    152 N14         9.4750    1.4540   -1.6290 n         1 MOL     -0.304566
    153 C49        10.1180    2.6500   -1.0560 c3        1 MOL     -0.028648
    154 C50        10.4990    2.7070    0.4590 c         1 MOL      0.366568
    155 O20        10.2300    3.6340    1.1830 o         1 MOL     -0.469171
    156 C51         9.4010    3.9950   -1.4080 c3        1 MOL      0.358616
    157 C52         9.0100    4.2090   -2.8860 c3        1 MOL     -0.243091
    158 C53         8.3490    5.6090   -3.0730 c         1 MOL      0.611111
    159 O21         8.8860    6.4750   -3.8380 o         1 MOL     -0.670125
    160 O22         7.3890    5.8750   -2.2900 o         1 MOL     -0.670125
    161 H72         9.7780    1.1030   -2.5290 hn        1 MOL      0.251353
    162 H73        11.0880    2.7900   -1.5460 h1        1 MOL      0.025195
    163 H74        10.0820    4.7960   -1.1420 hc        1 MOL     -0.037167
    164 H75         8.5500    4.1900   -0.7660 hc        1 MOL     -0.037167
    165 H76         8.3000    3.4870   -3.2820 hc        1 MOL      0.005990
    166 H77         9.9220    4.2150   -3.4790 hc        1 MOL      0.005990
    167 N15        11.0860    1.5650    0.9300 n         1 MOL     -0.252081
    168 C54        11.4770    1.3480    2.3440 c3        1 MOL     -0.103728
    169 H78        11.0870    0.3890    2.6850 h1        1 MOL      0.070878
    170 H79        12.5650    1.3470    2.4250 h1        1 MOL      0.070878
    171 H80        11.0670    2.1470    2.9610 h1        1 MOL      0.070878
    172 H81        11.3490    0.9090    0.2000 hn        1 MOL      0.226506
    173 Ca1         0.3700    1.6360   -1.0540 Ca        1 MOL      1.777510
    174 O23         1.8570    3.3900    0.5530 oh        1 MOL     -0.844718
    175 H82         2.7500    3.6280    0.8160 ho        1 MOL      0.410660
    176 H83         1.3020    4.0610    0.9510 ho        1 MOL      0.410660
    177 O24        -0.0380    4.1480   -1.7060 oh        1 MOL     -0.844718
    178 O25         2.0090    2.4720   -3.3010 oh        1 MOL     -0.844718
    179 H84        -0.6040    4.2970   -2.4630 ho        1 MOL      0.410660
    180 H85         2.2780    3.3910   -3.2990 ho        1 MOL      0.410660
    181 H86         0.6750    4.7810   -1.8190 ho        1 MOL      0.410660
    182 H87         2.6570    2.0340   -3.8460 ho        1 MOL      0.410660
    183 O26         3.1110    1.1100   -1.1310 oh        1 MOL     -0.844718
    184 H88         3.7610    1.5050   -0.5560 ho        1 MOL      0.410660
    185 H89         3.6200    0.7780   -1.8770 ho        1 MOL      0.410660
    186 O27        -0.9800    1.9560   -3.2760 oh        1 MOL     -0.844718
    187 H90        -0.6360    2.0770   -4.1630 ho        1 MOL      0.410660
    188 H91        -1.8000    2.4490   -3.2680 ho        1 MOL      0.410660
@<TRIPOS>BOND
     1    1    2 1   
     2    1    4 1   
     3    1    5 1   
     4    1    6 1   
     5    2    3 2   
     6    2    7 1   
     7    7    8 1   
     8    7   15 1   
     9    8    9 1   
    10    8   11 1   
    11    8   16 1   
    12    9   10 2   
    13    9   19 1   
    14   11   12 1   
    15   11   17 1   
    16   11   18 1   
    17   12   13 1   
    18   12   14 1   
    19   19   20 1   
    20   19   28 1   
    21   20   21 1   
    22   20   23 1   
    23   20   29 1   
    24   21   22 2   
    25   21   41 1   
    26   23   24 1   
    27   23   30 1   
    28   23   31 1   
    29   24   25 1   
    30   24   32 1   
    31   24   33 1   
    32   25   26 1   
    33   25   34 1   
    34   25   35 1   
    35   26   27 1   
    36   26   36 1   
    37   26   37 1   
    38   27   38 1   
    39   27   39 1   
    40   27   40 1   
    41   41   42 1   
    42   41   49 1   
    43   42   43 1   
    44   42   45 1   
    45   42   50 1   
    46   43   44 2   
    47   43   53 1   
    48   45   46 1   
    49   45   51 1   
    50   45   52 1   
    51   46   47 1   
    52   46   48 1   
    53   53   54 1   
    54   53   57 1   
    55   54   55 1   
    56   54   58 1   
    57   54   59 1   
    58   55   56 2   
    59   55   60 1   
    60   60   61 1   
    61   60   68 1   
    62   61   62 1   
    63   61   64 1   
    64   61   69 1   
    65   62   63 2   
    66   62   74 1   
    67   64   65 1   
    68   64   70 1   
    69   64   71 1   
    70   65   66 1   
    71   65   67 2   
    72   66   72 1   
    73   66   73 1   
    74   74   75 1   
    75   74   78 1   
    76   75   76 1   
    77   75   79 1   
    78   75   80 1   
    79   76   77 2   
    80   76   81 1   
    81   81   82 1   
    82   81   93 1   
    83   82   83 1   
    84   82   85 1   
    85   82   94 1   
    86   83   84 2   
    87   83  102 1   
    88   85   86 1   
    89   85   95 1   
    90   85   96 1   
    91   86   87 ar  
    92   86   88 ar  
    93   87   89 ar  
    94   87   97 1   
    95   88   90 ar  
    96   88   98 1   
    97   89   91 ar  
    98   89   99 1   
    99   90   91 ar  
   100   90  100 1   
   101   91   92 1   
   102   92  101 1   
   103  102  103 1   
   104  102  110 1   
   105  103  104 1   
   106  103  106 1   
   107  103  111 1   
   108  104  105 2   
   109  104  121 1   
   110  106  107 1   
   111  106  108 1   
   112  106  112 1   
   113  107  109 1   
   114  107  113 1   
   115  107  114 1   
   116  108  115 1   
   117  108  116 1   
   118  108  117 1   
   119  109  118 1   
   120  109  119 1   
   121  109  120 1   
   122  121  122 1   
   123  121  127 1   
   124  122  123 1   
   125  122  125 1   
   126  122  128 1   
   127  123  124 2   
   128  123  132 1   
   129  125  126 1   
   130  125  129 1   
   131  125  130 1   
   132  126  131 1   
   133  132  133 1   
   134  132  137 1   
   135  133  134 1   
   136  133  136 1   
   137  133  138 1   
   138  134  135 2   
   139  134  142 1   
   140  136  139 1   
   141  136  140 1   
   142  136  141 1   
   143  142  143 1   
   144  142  147 1   
   145  143  144 1   
   146  143  146 1   
   147  143  148 1   
   148  144  145 2   
   149  144  152 1   
   150  146  149 1   
   151  146  150 1   
   152  146  151 1   
   153  152  153 1   
   154  152  161 1   
   155  153  154 1   
   156  153  156 1   
   157  153  162 1   
   158  154  155 2   
   159  154  167 1   
   160  156  157 1   
   161  156  163 1   
   162  156  164 1   
   163  157  158 1   
   164  157  165 1   
   165  157  166 1   
   166  158  159 1   
   167  158  160 1   
   168  167  168 1   
   169  167  172 1   
   170  168  169 1   
   171  168  170 1   
   172  168  171 1   
   173  174  175 1   
   174  174  176 1   
   175  177  179 1   
   176  177  181 1   
   177  178  180 1   
   178  178  182 1   
   179  183  184 1   
   180  183  185 1   
   181  186  187 1   
   182  186  188 1   
@<TRIPOS>SUBSTRUCTURE
     1 MOL         1 TEMP              0 ****  ****    0 ROOT
