@<TRIPOS>MOLECULE
MOL
  198   191     1     0     0
SMALL
resp


@<TRIPOS>ATOM
      1 C1          4.1990    2.5070    3.2940 c3        1 MOL     -0.132915
      2 C2          3.6480    3.1760    2.0710 c         1 MOL      0.663224
      3 O1          2.6720    2.6980    1.5620 o         1 MOL     -0.523638
      4 H1          4.1150    1.4260    3.1850 hc        1 MOL      0.017560
      5 H2          5.2460    2.7800    3.4170 hc        1 MOL      0.017560
      6 H3          3.6340    2.8280    4.1700 hc        1 MOL      0.017560
      7 N1          4.2230    4.2540    1.5390 n         1 MOL     -0.580057
      8 C3          3.8550    4.8320    0.2290 c3        1 MOL     -0.040635
      9 C4          2.3110    5.1040    0.1010 c         1 MOL      0.785229
     10 O2          1.6770    4.9590   -0.9360 o         1 MOL     -0.518651
     11 C5          4.3750    3.9910   -0.8840 c3        1 MOL     -0.538966
     12 C6          5.8760    3.7590   -0.8340 c         1 MOL      1.042694
     13 O3          6.5620    4.6260   -0.2260 o         1 MOL     -0.791097
     14 O4          6.4460    2.7390   -1.4760 o         1 MOL     -0.791097
     15 H4          5.0040    4.6090    2.0660 hn        1 MOL      0.260884
     16 H5          4.2930    5.8310    0.1500 h1        1 MOL      0.117967
     17 H6          4.1230    4.3490   -1.8800 hc        1 MOL      0.153860
     18 H7          3.9560    2.9810   -0.9030 hc        1 MOL      0.153860
     19 N2          1.8110    5.5660    1.3010 n         1 MOL     -0.634375
     20 C7          0.4440    6.0060    1.5360 c3        1 MOL     -0.130790
     21 C8          0.0330    7.0390    0.5020 c         1 MOL      0.354874
     22 O5          0.9390    7.6930   -0.0310 o         1 MOL     -0.540205
     23 C9          0.3430    6.6600    2.9400 c3        1 MOL      0.151101
     24 C10         1.0900    8.0000    3.2260 c3        1 MOL     -0.003832
     25 C11         0.7790    5.5600    3.8980 c3        1 MOL     -0.249062
     26 C12         0.5330    8.7140    4.4750 c3        1 MOL     -0.243606
     27 H8          2.4970    5.7400    2.0290 hn        1 MOL      0.344157
     28 H9         -0.2430    5.1630    1.4400 h1        1 MOL      0.165601
     29 H10        -0.6980    6.9020    3.1430 hc        1 MOL      0.064996
     30 H11         0.9790    8.7370    2.4370 hc        1 MOL      0.036853
     31 H12         2.1350    7.7570    3.3750 hc        1 MOL      0.036853
     32 H13         1.8530    5.5850    4.0870 hc        1 MOL      0.054860
     33 H14         0.3540    5.7720    4.8840 hc        1 MOL      0.054860
     34 H15         0.4330    4.5880    3.5410 hc        1 MOL      0.054860
     35 H16         0.5020    8.0480    5.3300 hc        1 MOL      0.050628
     36 H17         1.0920    9.6230    4.7130 hc        1 MOL      0.050628
     37 H18        -0.4920    9.0270    4.2620 hc        1 MOL      0.050628
     38 N3         -1.2320    7.1100    0.1190 n         1 MOL     -0.189282
     39 C13        -2.3990    6.2140    0.5730 c3        1 MOL     -0.171363
     40 C14        -2.6150    4.9840   -0.2460 c         1 MOL      0.620247
     41 O6         -3.3880    4.1510    0.1290 o         1 MOL     -0.553043
     42 C15        -3.7420    7.0420    0.5510 c3        1 MOL     -0.109599
     43 C16        -4.0050    8.0170   -0.6030 c         1 MOL      0.622034
     44 O7         -3.2630    9.0360   -0.7750 o         1 MOL     -0.650614
     45 O8         -5.0310    7.8310   -1.3490 o         1 MOL     -0.650614
     46 H19        -1.4880    7.8560   -0.5070 hn        1 MOL      0.195880
     47 H20        -2.2710    5.9260    1.6070 h1        1 MOL      0.075288
     48 H21        -3.7810    7.6180    1.4740 hc        1 MOL      0.032827
     49 H22        -4.5140    6.2730    0.5600 hc        1 MOL      0.032827
     50 N4         -1.9400    4.8640   -1.4420 n         1 MOL     -0.367016
     51 C17        -2.1220    3.7020   -2.2920 c3        1 MOL     -0.167950
     52 C18        -3.5930    3.4040   -2.7810 c         1 MOL      0.491609
     53 O9         -4.3250    4.3750   -3.1140 o         1 MOL     -0.475061
     54 H23        -1.4330    5.6230   -1.8830 hn        1 MOL      0.331479
     55 H24        -1.8030    2.8190   -1.7400 h1        1 MOL      0.086627
     56 H25        -1.5160    3.7230   -3.1980 h1        1 MOL      0.086627
     57 N5         -3.9270    2.1080   -2.9310 n         1 MOL     -0.414696
     58 C19        -5.1780    1.7190   -3.6150 c3        1 MOL      0.135145
     59 C20        -6.4010    1.9280   -2.6970 c         1 MOL      0.342260
     60 O10        -7.4580    2.2360   -3.2450 o         1 MOL     -0.558975
     61 C21        -5.1650    0.2900   -4.2420 c3        1 MOL     -0.159689
     62 C22        -4.6970   -0.8130   -3.2880 c         1 MOL      0.679235
     63 O11        -3.6470   -1.5150   -3.5340 o         1 MOL     -0.683697
     64 O12        -5.3600   -0.9870   -2.2540 o         1 MOL     -0.683697
     65 H26        -3.3020    1.3720   -2.6440 hn        1 MOL      0.268091
     66 H27        -5.2680    2.3810   -4.4770 h1        1 MOL      0.057890
     67 H28        -4.3930    0.3710   -5.0120 hc        1 MOL      0.021364
     68 H29        -6.1240    0.0530   -4.7080 hc        1 MOL      0.021364
     69 N6         -6.2860    1.6730   -1.4130 n         1 MOL     -0.062863
     70 C23        -7.4190    1.7160   -0.4040 c3        1 MOL     -0.269330
     71 C24        -8.0400    0.3400   -0.0730 c         1 MOL      0.508129
     72 O13        -8.8800    0.3090    0.8310 o         1 MOL     -0.584534
     73 H30        -5.3380    1.5070   -1.0990 hn        1 MOL      0.192065
     74 H31        -8.1660    2.3640   -0.8760 h1        1 MOL      0.128897
     75 H32        -7.0500    2.1110    0.5380 h1        1 MOL      0.128897
     76 N7         -7.6640   -0.7250   -0.7560 n         1 MOL     -0.079977
     77 C25        -8.1070   -2.1430   -0.5030 c3        1 MOL     -0.021454
     78 C26        -7.8410   -2.7100    0.8830 c         1 MOL      0.438402
     79 O14        -8.4130   -3.6950    1.3220 o         1 MOL     -0.501704
     80 C27        -9.5180   -2.3480   -1.0030 c3        1 MOL      0.110218
     81 C28        -9.7100   -1.9080   -2.4420 c3        1 MOL     -0.110711
     82 C29       -11.0690   -2.0890   -3.0740 c         1 MOL      0.545214
     83 N8        -11.8130   -1.0170   -3.1420 n         1 MOL     -0.695530
     84 O15       -11.5630   -3.1490   -3.4140 o         1 MOL     -0.564058
     85 H33        -6.9320   -0.6490   -1.4580 hn        1 MOL      0.089121
     86 H34        -7.4590   -2.6980   -1.1830 h1        1 MOL      0.111772
     87 H35       -10.2040   -1.7270   -0.4250 hc        1 MOL     -0.000440
     88 H36        -9.6940   -3.4140   -0.9310 hc        1 MOL     -0.000440
     89 H37        -9.0290   -2.4700   -3.0850 hc        1 MOL      0.042954
     90 H38        -9.3660   -0.8760   -2.4920 hc        1 MOL      0.042954
     91 H39       -11.4620   -0.0760   -3.0460 hn        1 MOL      0.324560
     92 H40       -12.7730   -1.1100   -3.4640 hn        1 MOL      0.324560
     93 N9         -7.0040   -2.0010    1.6610 n         1 MOL     -0.363760
     94 C30        -6.6590   -2.3590    3.0540 c3        1 MOL     -0.064984
     95 C31        -5.2840   -2.9350    3.3060 c         1 MOL      0.704930
     96 O16        -5.1710   -3.6790    4.2620 o         1 MOL     -0.609063
     97 C32        -6.9900   -1.2860    3.9800 c3        1 MOL      0.258868
     98 C33        -6.5090    0.1410    3.5340 c3        1 MOL     -0.323917
     99 C34        -8.4890   -1.2760    4.2060 c3        1 MOL     -0.323917
    100 H41        -6.5260   -1.2290    1.2240 hn        1 MOL      0.198368
    101 H42        -7.3790   -3.1500    3.2740 h1        1 MOL      0.090707
    102 H43        -6.3870   -1.3910    4.8810 hc        1 MOL     -0.050344
    103 H44        -5.4800    0.0160    3.2000 hc        1 MOL      0.077311
    104 H45        -7.2520    0.5590    2.8540 hc        1 MOL      0.077311
    105 H46        -6.4800    0.8590    4.3540 hc        1 MOL      0.077311
    106 H47        -8.6310   -0.4040    4.8430 hc        1 MOL      0.077311
    107 H48        -9.1210   -1.2110    3.3200 hc        1 MOL      0.077311
    108 H49        -8.7880   -2.0360    4.9270 hc        1 MOL      0.077311
    109 N10        -4.3590   -2.7220    2.3860 n         1 MOL     -0.606977
    110 C35        -2.9200   -2.8980    2.5590 c3        1 MOL      0.443023
    111 C36        -2.2110   -3.5060    1.3510 c         1 MOL      0.422046
    112 O17        -2.8100   -3.8590    0.3340 o         1 MOL     -0.519027
    113 C37        -2.3990   -1.4630    2.8420 c3        1 MOL     -0.301192
    114 C38        -1.4960   -1.4320    4.0890 c         1 MOL      0.671851
    115 N11        -1.6640   -0.5040    5.0200 n         1 MOL     -0.824928
    116 O18        -0.5400   -2.1890    4.1510 o         1 MOL     -0.527432
    117 H50        -4.5960   -2.0910    1.6320 hn        1 MOL      0.295747
    118 H51        -2.6680   -3.5070    3.4240 h1        1 MOL      0.006464
    119 H52        -3.2610   -0.8340    3.0600 hc        1 MOL      0.059929
    120 H53        -1.6860   -1.1710    2.0680 hc        1 MOL      0.059929
    121 H54        -2.4960    0.0510    4.8450 hn        1 MOL      0.381942
    122 H55        -1.0400   -0.3730    5.8000 hn        1 MOL      0.381942
    123 N12        -0.8990   -3.6280    1.4520 n         1 MOL     -0.532714
    124 C39        -0.0290   -3.9100    0.3730 c3        1 MOL      0.633415
    125 C40         1.2200   -4.7430    0.7440 c         1 MOL      0.100473
    126 O19         1.9540   -4.4100    1.7140 o         1 MOL     -0.483492
    127 C41         0.1920   -2.6900   -0.5640 c3        1 MOL     -0.204162
    128 C42         1.0560   -2.9590   -1.7820 ca        1 MOL     -0.020927
    129 C43         2.2820   -2.2600   -1.9250 ca        1 MOL     -0.076760
    130 C44         0.6560   -3.6870   -2.9040 ca        1 MOL     -0.076760
    131 C45         3.1210   -2.3200   -3.0670 ca        1 MOL     -0.326485
    132 C46         1.5870   -3.9800   -3.8890 ca        1 MOL     -0.326485
    133 C47         2.8110   -3.2250   -4.0240 ca        1 MOL      0.415997
    134 O20         3.6420   -3.4800   -5.0320 oh        1 MOL     -0.525834
    135 H56        -0.5440   -3.2800    2.3300 hn        1 MOL      0.210625
    136 H57        -0.5930   -4.5920   -0.2570 h1        1 MOL     -0.055102
    137 H58         0.7010   -1.9720    0.0810 hc        1 MOL      0.080929
    138 H59        -0.7600   -2.2330   -0.8500 hc        1 MOL      0.080929
    139 H60         2.5540   -1.5640   -1.1460 ha        1 MOL      0.125887
    140 H61        -0.2770   -4.2140   -2.8370 ha        1 MOL      0.125887
    141 H62         3.9500   -1.6490   -3.2020 ha        1 MOL      0.158290
    142 H63         1.3750   -4.7300   -4.6370 ha        1 MOL      0.158290
    143 H64         4.5060   -3.1130   -4.8370 ho        1 MOL      0.380157
    144 N13         1.7350   -5.5790   -0.2050 n         1 MOL     -0.102947
    145 C48         3.0070   -6.3570   -0.1220 c3        1 MOL     -0.044927
    146 C49         3.8270   -6.3140   -1.4350 c         1 MOL      0.548415
    147 O21         3.6060   -6.9960   -2.4060 o         1 MOL     -0.563792
    148 C50         2.7660   -7.8100    0.2420 c3        1 MOL      0.059626
    149 C51         1.7390   -7.9390    1.3560 c3        1 MOL     -0.109398
    150 C52         1.7190   -9.4320    1.9280 c         1 MOL      0.676565
    151 O22         1.4130  -10.3680    1.1350 o         1 MOL     -0.661588
    152 O23         2.0770   -9.6110    3.0980 o         1 MOL     -0.661588
    153 H65         1.0830   -5.7170   -0.9670 hn        1 MOL      0.188649
    154 H66         3.4880   -5.9820    0.7790 h1        1 MOL      0.170913
    155 H67         3.7180   -8.2390    0.5730 hc        1 MOL      0.003106
    156 H68         2.4820   -8.4550   -0.5910 hc        1 MOL      0.003106
    157 H69         0.7250   -7.8430    0.9750 hc        1 MOL     -0.003553
    158 H70         1.9430   -7.2700    2.1930 hc        1 MOL     -0.003553
    159 N14         4.8450   -5.5220   -1.4750 n         1 MOL     -0.443857
    160 C53         5.0440   -4.4440   -0.5520 c3        1 MOL     -0.058022
    161 C54         5.5410   -4.8870    0.8510 c         1 MOL      0.468554
    162 O24         6.1230   -5.9870    1.0040 o         1 MOL     -0.541981
    163 C55         6.0810   -3.4320   -1.1030 c3        1 MOL      0.032270
    164 C56         7.5780   -3.9050   -1.1970 c3        1 MOL     -0.216396
    165 C57         8.4100   -2.7200   -1.6200 c         1 MOL      0.691113
    166 O25         8.6110   -2.5580   -2.8560 o         1 MOL     -0.676592
    167 O26         8.9390   -2.0080   -0.7430 o         1 MOL     -0.676592
    168 H71         5.3640   -5.5360   -2.3450 hn        1 MOL      0.334536
    169 H72         4.1490   -3.8600   -0.3610 h1        1 MOL     -0.009270
    170 H73         6.0620   -2.6490   -0.3460 hc        1 MOL      0.001480
    171 H74         5.7710   -3.0330   -2.0650 hc        1 MOL      0.001480
    172 H75         7.6870   -4.7210   -1.9230 hc        1 MOL      0.043850
    173 H76         7.9010   -4.1600   -0.1920 hc        1 MOL      0.043850
    174 N15         5.1670   -4.1750    1.8800 n         1 MOL     -0.261832
    175 C58         5.2540   -4.5630    3.2930 c3        1 MOL     -0.180392
    176 H77         5.2100   -5.6500    3.3740 h1        1 MOL      0.093879
    177 H78         6.1950   -4.2070    3.7110 h1        1 MOL      0.093879
    178 H79         4.4220   -4.1250    3.8430 h1        1 MOL      0.093879
    179 H80         4.6790   -3.3210    1.6710 hn        1 MOL      0.265833
    180 Ca1         8.7450    2.7500   -0.3650 Ca        1 MOL      1.564856
    181 O27         8.6920    4.0230   -2.8450 oh        1 MOL     -0.788368
    182 H81         9.4860    3.9340   -3.3780 ho        1 MOL      0.371321
    183 H82         8.2490    4.7920   -3.1940 ho        1 MOL      0.371321
    184 O28        10.2360    5.2010   -0.4370 oh        1 MOL     -0.788368
    185 H83        10.1160    5.9510   -1.0230 ho        1 MOL      0.371321
    186 H84        11.1710    5.2370   -0.1990 ho        1 MOL      0.371321
    187 O29         7.0510    1.0690    0.9470 oh        1 MOL     -0.788368
    188 H85         6.8520    1.2840    1.8630 ho        1 MOL      0.371321
    189 H86         7.4420    0.1970    0.9790 ho        1 MOL      0.371321
    190 O30         8.5820    0.3300   -1.4950 oh        1 MOL     -0.788368
    191 H87         7.9160    0.2110   -2.1700 ho        1 MOL      0.371321
    192 H88         8.8000   -0.5510   -1.2070 ho        1 MOL      0.371321
    193 O31        10.4520    1.2650    1.3670 oh        1 MOL     -0.788368
    194 H89        11.2320    1.5770    1.8310 ho        1 MOL      0.371321
    195 H90         9.8600    0.9750    2.0550 ho        1 MOL      0.371321
    196 O32        11.1230    2.3960   -1.2520 oh        1 MOL     -0.788368
    197 H91        11.7110    2.8660   -1.8550 ho        1 MOL      0.371321
    198 H92        11.6690    1.7090   -0.8740 ho        1 MOL      0.371321
@<TRIPOS>BOND
     1    1    2 1   
     2    1    4 1   
     3    1    5 1   
     4    1    6 1   
     5    2    3 2   
     6    2    7 1   
     7    7    8 1   
     8    7   15 1   
     9    8    9 1   
    10    8   11 1   
    11    8   16 1   
    12    9   10 2   
    13    9   19 1   
    14   11   12 1   
    15   11   17 1   
    16   11   18 1   
    17   12   13 1   
    18   12   14 1   
    19   19   20 1   
    20   19   27 1   
    21   20   21 1   
    22   20   23 1   
    23   20   28 1   
    24   21   22 2   
    25   21   38 1   
    26   23   24 1   
    27   23   25 1   
    28   23   29 1   
    29   24   26 1   
    30   24   30 1   
    31   24   31 1   
    32   25   32 1   
    33   25   33 1   
    34   25   34 1   
    35   26   35 1   
    36   26   36 1   
    37   26   37 1   
    38   38   39 1   
    39   38   46 1   
    40   39   40 1   
    41   39   42 1   
    42   39   47 1   
    43   40   41 2   
    44   40   50 1   
    45   42   43 1   
    46   42   48 1   
    47   42   49 1   
    48   43   44 1   
    49   43   45 1   
    50   50   51 1   
    51   50   54 1   
    52   51   52 1   
    53   51   55 1   
    54   51   56 1   
    55   52   53 2   
    56   52   57 1   
    57   57   58 1   
    58   57   65 1   
    59   58   59 1   
    60   58   61 1   
    61   58   66 1   
    62   59   60 2   
    63   59   69 1   
    64   61   62 1   
    65   61   67 1   
    66   61   68 1   
    67   62   63 1   
    68   62   64 1   
    69   69   70 1   
    70   69   73 1   
    71   70   71 1   
    72   70   74 1   
    73   70   75 1   
    74   71   72 2   
    75   71   76 1   
    76   76   77 1   
    77   76   85 1   
    78   77   78 1   
    79   77   80 1   
    80   77   86 1   
    81   78   79 2   
    82   78   93 1   
    83   80   81 1   
    84   80   87 1   
    85   80   88 1   
    86   81   82 1   
    87   81   89 1   
    88   81   90 1   
    89   82   83 1   
    90   82   84 2   
    91   83   91 1   
    92   83   92 1   
    93   93   94 1   
    94   93  100 1   
    95   94   95 1   
    96   94   97 1   
    97   94  101 1   
    98   95   96 2   
    99   95  109 1   
   100   97   98 1   
   101   97   99 1   
   102   97  102 1   
   103   98  103 1   
   104   98  104 1   
   105   98  105 1   
   106   99  106 1   
   107   99  107 1   
   108   99  108 1   
   109  109  110 1   
   110  109  117 1   
   111  110  111 1   
   112  110  113 1   
   113  110  118 1   
   114  111  112 2   
   115  111  123 1   
   116  113  114 1   
   117  113  119 1   
   118  113  120 1   
   119  114  115 1   
   120  114  116 2   
   121  115  121 1   
   122  115  122 1   
   123  123  124 1   
   124  123  135 1   
   125  124  125 1   
   126  124  127 1   
   127  124  136 1   
   128  125  126 2   
   129  125  144 1   
   130  127  128 1   
   131  127  137 1   
   132  127  138 1   
   133  128  129 ar  
   134  128  130 ar  
   135  129  131 ar  
   136  129  139 1   
   137  130  132 ar  
   138  130  140 1   
   139  131  133 ar  
   140  131  141 1   
   141  132  133 ar  
   142  132  142 1   
   143  133  134 1   
   144  134  143 1   
   145  144  145 1   
   146  144  153 1   
   147  145  146 1   
   148  145  148 1   
   149  145  154 1   
   150  146  147 2   
   151  146  159 1   
   152  148  149 1   
   153  148  155 1   
   154  148  156 1   
   155  149  150 1   
   156  149  157 1   
   157  149  158 1   
   158  150  151 1   
   159  150  152 1   
   160  159  160 1   
   161  159  168 1   
   162  160  161 1   
   163  160  163 1   
   164  160  169 1   
   165  161  162 2   
   166  161  174 1   
   167  163  164 1   
   168  163  170 1   
   169  163  171 1   
   170  164  165 1   
   171  164  172 1   
   172  164  173 1   
   173  165  166 1   
   174  165  167 1   
   175  174  175 1   
   176  174  179 1   
   177  175  176 1   
   178  175  177 1   
   179  175  178 1   
   180  181  182 1   
   181  181  183 1   
   182  184  185 1   
   183  184  186 1   
   184  187  188 1   
   185  187  189 1   
   186  190  191 1   
   187  190  192 1   
   188  193  194 1   
   189  193  195 1   
   190  196  197 1   
   191  196  198 1   
@<TRIPOS>SUBSTRUCTURE
     1 MOL         1 TEMP              0 ****  ****    0 ROOT
