@<TRIPOS>MOLECULE
MOL
  186   183     1     0     0
SMALL
resp


@<TRIPOS>ATOM
      1 C1         11.4650    4.8550   -4.4680 c3        1 MOL     -0.406220
      2 C2         11.3860    3.8240   -3.2840 c         1 MOL      0.693566
      3 O1         11.9630    2.7820   -3.3270 o         1 MOL     -0.602317
      4 H1         10.6610    5.5850   -4.3680 hc        1 MOL      0.110187
      5 H2         12.4260    5.3680   -4.4400 hc        1 MOL      0.110187
      6 H3         11.3610    4.3280   -5.4170 hc        1 MOL      0.110187
      7 N1         10.6770    4.1370   -2.1560 n         1 MOL     -0.221676
      8 C3         10.7050    3.3570   -0.9370 c3        1 MOL     -0.526779
      9 C4          9.6090    2.3390   -0.7940 c         1 MOL      0.854206
     10 O2          8.4180    2.6490   -1.0160 o         1 MOL     -0.833880
     11 C5         10.7040    4.2720    0.2270 c3        1 MOL     -0.003008
     12 C6          9.7800    5.5250    0.1330 c         1 MOL      0.787732
     13 O3          8.5470    5.4750   -0.1410 o         1 MOL     -0.731737
     14 O4         10.3560    6.6540    0.3120 o         1 MOL     -0.731737
     15 H4         10.2100    5.0230   -2.0570 hn        1 MOL      0.179232
     16 H5         11.6520    2.8040   -1.0050 h1        1 MOL      0.164035
     17 H6         11.7250    4.6470    0.2580 hc        1 MOL      0.061766
     18 H7         10.4620    3.7630    1.1510 hc        1 MOL      0.061766
     19 N2          9.9830    1.1900   -0.2670 n         1 MOL     -0.508163
     20 C7          9.1380   -0.0130   -0.3180 c3        1 MOL      0.070753
     21 C8          8.0520   -0.1340    0.8700 c         1 MOL      0.401053
     22 O5          7.5570   -1.2620    1.1600 o         1 MOL     -0.499482
     23 C9         10.0500   -1.2940   -0.3330 c3        1 MOL     -0.366135
     24 C10        11.1280   -1.2580   -1.4170 c3        1 MOL      0.007175
     25 C11        11.6930   -2.6790   -1.6460 c3        1 MOL     -0.008815
     26 C12        12.8200   -2.6010   -2.6380 c3        1 MOL      0.166878
     27 N3         13.7500   -3.7560   -2.5310 n4        1 MOL     -0.296147
     28 H8         10.9650    1.0110   -0.1190 hn        1 MOL      0.293764
     29 H9          8.5870   -0.0560   -1.2540 h1        1 MOL      0.149740
     30 H10         9.3900   -2.1600   -0.4070 hc        1 MOL      0.146851
     31 H11        10.5940   -1.3870    0.6050 hc        1 MOL      0.146851
     32 H12        11.9840   -0.6740   -1.0910 hc        1 MOL      0.047561
     33 H13        10.7210   -0.9010   -2.3670 hc        1 MOL      0.047561
     34 H14        10.9320   -3.3840   -1.9710 hc        1 MOL      0.025919
     35 H15        12.0910   -2.9520   -0.6720 hc        1 MOL      0.025919
     36 H16        13.2670   -1.6080   -2.5800 hx        1 MOL      0.031542
     37 H17        12.3970   -2.6800   -3.6390 hx        1 MOL      0.031542
     38 H18        13.8570   -4.2430   -3.4210 hn        1 MOL      0.254798
     39 H19        14.6620   -3.4990   -2.1750 hn        1 MOL      0.254798
     40 H20        13.4460   -4.4380   -1.8530 hn        1 MOL      0.254798
     41 N4          7.6560    0.9460    1.4720 n         1 MOL     -0.099234
     42 C13         6.4410    1.0130    2.2840 c3        1 MOL     -0.480198
     43 C14         5.2460    1.2430    1.3140 c         1 MOL      0.854740
     44 O6          5.4140    2.0300    0.4400 o         1 MOL     -0.859333
     45 C15         6.5640    2.0920    3.4350 c3        1 MOL      0.038634
     46 C16         6.7540    3.5660    2.9530 c         1 MOL      0.620832
     47 O7          6.6700    4.4400    3.8210 o         1 MOL     -0.674071
     48 O8          6.8800    3.9070    1.7610 o         1 MOL     -0.674071
     49 H21         8.0610    1.8270    1.1860 hn        1 MOL      0.197667
     50 H22         6.3380    0.1110    2.8970 h1        1 MOL      0.212136
     51 H23         7.4130    1.7260    4.0100 hc        1 MOL      0.051851
     52 H24         5.7310    2.0630    4.1470 hc        1 MOL      0.051851
     53 N5          4.0450    0.7050    1.5230 n         1 MOL     -0.468403
     54 C17         3.7650   -0.3840    2.3960 c3        1 MOL     -0.066551
     55 C18         3.7360   -1.7340    1.6660 c         1 MOL      0.691387
     56 O9          3.1060   -1.8600    0.6080 o         1 MOL     -0.580063
     57 H25         3.3380    0.9680    0.8510 hn        1 MOL      0.320392
     58 H26         2.7660   -0.2320    2.7890 h1        1 MOL      0.081262
     59 H27         4.4890   -0.4700    3.2020 h1        1 MOL      0.081262
     60 N6          4.4010   -2.7060    2.2840 n         1 MOL     -0.607535
     61 C19         4.6460   -4.0350    1.7150 c3        1 MOL      0.233568
     62 C20         3.3930   -4.9530    1.8490 c         1 MOL      0.510125
     63 O10         2.8440   -5.0360    2.9290 o         1 MOL     -0.487948
     64 C21         5.9200   -4.6760    2.2080 c3        1 MOL     -0.075979
     65 C22         5.9740   -4.8080    3.6990 c         1 MOL      0.673827
     66 O11         6.1810   -3.7810    4.4010 o         1 MOL     -0.631558
     67 O12         5.8970   -5.9620    4.2410 o         1 MOL     -0.631558
     68 H28         4.9360   -2.4980    3.1220 hn        1 MOL      0.283202
     69 H29         4.7630   -3.9600    0.6350 h1        1 MOL     -0.036486
     70 H30         6.7360   -4.0010    1.9480 hc        1 MOL     -0.026477
     71 H31         5.9080   -5.6500    1.7080 hc        1 MOL     -0.026477
     72 N7          3.1210   -5.7600    0.8510 n         1 MOL     -0.278561
     73 C23         2.0830   -6.7430    1.0080 c3        1 MOL     -0.224497
     74 C24         0.6500   -6.2590    0.5690 c         1 MOL      0.516480
     75 O13        -0.3210   -6.9840    0.6800 o         1 MOL     -0.550605
     76 H32         3.5390   -5.7080   -0.0680 hn        1 MOL      0.244553
     77 H33         2.0010   -7.1880    1.9960 h1        1 MOL      0.128467
     78 H34         2.3720   -7.5730    0.3550 h1        1 MOL      0.128467
     79 N8          0.4570   -4.9760    0.2380 n         1 MOL     -0.326056
     80 C25        -0.6320   -4.5760   -0.7200 c3        1 MOL     -0.016780
     81 C26        -1.1620   -3.1490   -0.4800 c         1 MOL      0.598248
     82 O14        -0.3520   -2.2380   -0.1990 o         1 MOL     -0.476697
     83 C27        -0.0560   -4.8350   -2.1230 c3        1 MOL      0.408649
     84 C28        -0.9250   -4.5600   -3.3590 c3        1 MOL     -0.424764
     85 O15         1.1560   -4.0990   -2.2270 oh        1 MOL     -0.603186
     86 H35         1.2930   -4.4180    0.3120 hn        1 MOL      0.184240
     87 H36        -1.4930   -5.2460   -0.6620 h1        1 MOL      0.049050
     88 H37         0.1240   -5.9060   -2.2570 h1        1 MOL     -0.027790
     89 H38         1.6100   -4.5450   -2.9400 ho        1 MOL      0.378707
     90 H39        -1.9200   -4.9900   -3.2740 hc        1 MOL      0.104090
     91 H40        -0.8980   -3.4760   -3.4900 hc        1 MOL      0.104090
     92 H41        -0.4110   -4.8960   -4.2560 hc        1 MOL      0.104090
     93 N9         -2.4810   -2.9560   -0.6190 n         1 MOL     -0.555606
     94 C29        -3.0820   -1.6300   -0.4860 c3        1 MOL     -0.085371
     95 C30        -4.5750   -1.7250   -0.0550 c         1 MOL      0.738780
     96 O16        -5.1190   -0.8900    0.5220 o         1 MOL     -0.486444
     97 C31        -2.7630   -0.7720   -1.7320 c3        1 MOL      0.024888
     98 C32        -3.1570    0.6990   -1.4820 c3        1 MOL      0.030455
     99 C33        -3.5020   -1.2110   -2.9990 c3        1 MOL     -0.237815
    100 C34        -2.4330    1.4190   -0.3830 c3        1 MOL     -0.186809
    101 H42        -3.0750   -3.7630   -0.7690 hn        1 MOL      0.294945
    102 H43        -2.6310   -1.1680    0.3930 h1        1 MOL      0.114206
    103 H44        -1.6880   -0.8410   -1.9350 hc        1 MOL      0.088385
    104 H45        -4.2320    0.7210   -1.3050 hc        1 MOL      0.014216
    105 H46        -2.9330    1.3180   -2.3580 hc        1 MOL      0.014216
    106 H47        -4.5700   -0.9900   -2.9280 hc        1 MOL      0.054269
    107 H48        -3.2120   -0.5980   -3.8460 hc        1 MOL      0.054269
    108 H49        -3.4020   -2.2750   -3.1910 hc        1 MOL      0.054269
    109 H50        -2.7500    1.0130    0.5870 hc        1 MOL      0.046529
    110 H51        -1.3500    1.3690   -0.4950 hc        1 MOL      0.046529
    111 H52        -2.7080    2.4690   -0.3490 hc        1 MOL      0.046529
    112 N10        -5.1930   -2.8780   -0.4020 n         1 MOL     -0.504281
    113 C35        -6.5790   -3.1010   -0.1160 c3        1 MOL     -0.229013
    114 C36        -7.4610   -3.0060   -1.3510 c         1 MOL      0.682834
    115 O17        -7.1150   -3.3090   -2.4940 o         1 MOL     -0.549392
    116 C37        -6.7600   -4.4850    0.5280 c3        1 MOL      0.373921
    117 C38        -6.0480   -4.3710    1.8470 c3        1 MOL     -0.350078
    118 O18        -8.0930   -4.6750    0.7970 oh        1 MOL     -0.681842
    119 H53        -4.8920   -3.3510   -1.2390 hn        1 MOL      0.292049
    120 H54        -7.0040   -2.4030    0.6080 h1        1 MOL      0.153105
    121 H55        -6.3170   -5.3160   -0.0110 h1        1 MOL      0.017372
    122 H56        -8.1040   -5.4100    1.4050 ho        1 MOL      0.421851
    123 H57        -6.1940   -5.2660    2.4470 hc        1 MOL      0.099766
    124 H58        -4.9730   -4.3870    1.6560 hc        1 MOL      0.099766
    125 H59        -6.3400   -3.4170    2.2820 hc        1 MOL      0.099766
    126 N11        -8.6460   -2.4480   -1.1410 n         1 MOL     -0.534876
    127 C39        -9.6410   -1.9970   -2.1010 c3        1 MOL      0.016161
    128 C40        -9.7680   -0.4350   -2.0400 c         1 MOL      0.743114
    129 O19        -9.9390    0.1380   -3.1120 o         1 MOL     -0.569924
    130 C41       -10.9540   -2.7780   -1.9850 c3        1 MOL      0.428852
    131 C42       -12.0880   -2.2410   -2.7630 c3        1 MOL     -0.412553
    132 O20       -11.3870   -2.6940   -0.6370 oh        1 MOL     -0.657080
    133 H60        -8.8180   -2.2590   -0.1670 hn        1 MOL      0.292590
    134 H61        -9.2700   -2.2550   -3.0910 h1        1 MOL      0.078112
    135 H62       -10.6730   -3.8030   -2.2200 h1        1 MOL      0.003347
    136 H63       -10.6390   -2.8470   -0.0440 ho        1 MOL      0.378631
    137 H64       -12.3570   -1.2870   -2.3120 hc        1 MOL      0.112410
    138 H65       -11.6790   -1.9650   -3.7270 hc        1 MOL      0.112410
    139 H66       -13.0410   -2.7800   -2.8010 hc        1 MOL      0.112410
    140 N12        -9.7430    0.1880   -0.8420 n         1 MOL     -0.750382
    141 C43        -9.8170    1.6280   -0.6900 c3        1 MOL      0.324061
    142 C44        -8.9800    2.2640    0.3570 c         1 MOL      0.681831
    143 O21        -8.4440    1.5380    1.1110 o         1 MOL     -0.524280
    144 C45       -11.2700    2.0600   -0.7110 c3        1 MOL     -0.507743
    145 C46       -12.2350    1.4400    0.3370 c3        1 MOL      0.270478
    146 C47       -13.5760    2.2830    0.3500 c3        1 MOL     -0.090084
    147 C48       -14.5430    1.8150    1.4470 c3        1 MOL      0.038554
    148 N13       -14.7580    0.3160    1.4670 n4        1 MOL     -0.335642
    149 H67        -9.9600   -0.4090   -0.0550 hn        1 MOL      0.287705
    150 H68        -9.4080    1.9850   -1.6310 h1        1 MOL      0.053855
    151 H69       -11.6810    1.9290   -1.7160 hc        1 MOL      0.113635
    152 H70       -11.2040    3.0980   -0.3980 hc        1 MOL      0.113635
    153 H71       -11.7350    1.4200    1.3010 hc        1 MOL     -0.027466
    154 H72       -12.4820    0.4150    0.0800 hc        1 MOL     -0.027466
    155 H73       -14.0810    2.2910   -0.6190 hc        1 MOL      0.063349
    156 H74       -13.2680    3.2800    0.6570 hc        1 MOL      0.063349
    157 H75       -15.4580    2.4100    1.4780 hx        1 MOL      0.082322
    158 H76       -14.0570    2.0870    2.3840 hx        1 MOL      0.082322
    159 H77       -13.9220   -0.2470    1.5680 hn        1 MOL      0.276655
    160 H78       -15.2750   -0.0220    2.2630 hn        1 MOL      0.276655
    161 H79       -15.2920    0.0750    0.6540 hn        1 MOL      0.276655
    162 N14        -8.8720    3.5780    0.3660 n         1 MOL     -0.598552
    163 C49        -7.8430    4.3340    1.1420 c3        1 MOL      0.083534
    164 C50        -6.3950    3.8420    0.8770 c         1 MOL      0.288311
    165 O22        -5.6700    3.5470    1.8690 o         1 MOL     -0.505995
    166 C51        -7.9610    5.8080    0.8460 c3        1 MOL      0.139336
    167 C52        -9.2510    6.5350    1.2610 c3        1 MOL     -0.224555
    168 C53        -9.0060    8.0720    1.4520 c         1 MOL      0.674274
    169 O23        -9.2160    8.8340    0.4580 o         1 MOL     -0.650284
    170 O24        -8.5580    8.4440    2.5700 o         1 MOL     -0.650284
    171 H80        -9.3270    4.0600   -0.3880 hn        1 MOL      0.307778
    172 H81        -8.0080    4.2470    2.2170 h1        1 MOL      0.101668
    173 H82        -7.7440    5.9180   -0.2200 hc        1 MOL      0.011363
    174 H83        -7.0880    6.3380    1.2120 hc        1 MOL      0.011363
    175 H84        -9.6400    6.0950    2.1860 hc        1 MOL      0.005176
    176 H85        -9.9810    6.3030    0.4870 hc        1 MOL      0.005176
    177 N15        -5.8270    3.6910   -0.3130 n         1 MOL     -0.181746
    178 C54        -6.4090    3.9390   -1.6610 c3        1 MOL     -0.205065
    179 H86        -7.2340    4.6470   -1.5750 h1        1 MOL      0.081875
    180 H87        -5.6430    4.3520   -2.3180 h1        1 MOL      0.081875
    181 H88        -6.7790    3.0020   -2.0760 h1        1 MOL      0.081875
    182 H89        -4.8250    3.5260   -0.3100 hn        1 MOL      0.256626
    183 Ca1         6.2960    4.3040   -0.6310 Ca        1 MOL      1.750288
    184 O25         6.0600    2.0210   -2.2480 oh        1 MOL     -0.704108
    185 H90         5.2570    1.9450   -2.7760 ho        1 MOL      0.373473
    186 H91         6.0490    1.2430   -1.6780 ho        1 MOL      0.373473
@<TRIPOS>BOND
     1    1    2 1   
     2    1    4 1   
     3    1    5 1   
     4    1    6 1   
     5    2    3 2   
     6    2    7 1   
     7    7    8 1   
     8    7   15 1   
     9    8    9 1   
    10    8   11 1   
    11    8   16 1   
    12    9   10 2   
    13    9   19 1   
    14   11   12 1   
    15   11   17 1   
    16   11   18 1   
    17   12   13 1   
    18   12   14 1   
    19   19   20 1   
    20   19   28 1   
    21   20   21 1   
    22   20   23 1   
    23   20   29 1   
    24   21   22 2   
    25   21   41 1   
    26   23   24 1   
    27   23   30 1   
    28   23   31 1   
    29   24   25 1   
    30   24   32 1   
    31   24   33 1   
    32   25   26 1   
    33   25   34 1   
    34   25   35 1   
    35   26   27 1   
    36   26   36 1   
    37   26   37 1   
    38   27   38 1   
    39   27   39 1   
    40   27   40 1   
    41   41   42 1   
    42   41   49 1   
    43   42   43 1   
    44   42   45 1   
    45   42   50 1   
    46   43   44 2   
    47   43   53 1   
    48   45   46 1   
    49   45   51 1   
    50   45   52 1   
    51   46   47 1   
    52   46   48 1   
    53   53   54 1   
    54   53   57 1   
    55   54   55 1   
    56   54   58 1   
    57   54   59 1   
    58   55   56 2   
    59   55   60 1   
    60   60   61 1   
    61   60   68 1   
    62   61   62 1   
    63   61   64 1   
    64   61   69 1   
    65   62   63 2   
    66   62   72 1   
    67   64   65 1   
    68   64   70 1   
    69   64   71 1   
    70   65   66 1   
    71   65   67 1   
    72   72   73 1   
    73   72   76 1   
    74   73   74 1   
    75   73   77 1   
    76   73   78 1   
    77   74   75 2   
    78   74   79 1   
    79   79   80 1   
    80   79   86 1   
    81   80   81 1   
    82   80   83 1   
    83   80   87 1   
    84   81   82 2   
    85   81   93 1   
    86   83   84 1   
    87   83   85 1   
    88   83   88 1   
    89   84   90 1   
    90   84   91 1   
    91   84   92 1   
    92   85   89 1   
    93   93   94 1   
    94   93  101 1   
    95   94   95 1   
    96   94   97 1   
    97   94  102 1   
    98   95   96 2   
    99   95  112 1   
   100   97   98 1   
   101   97   99 1   
   102   97  103 1   
   103   98  100 1   
   104   98  104 1   
   105   98  105 1   
   106   99  106 1   
   107   99  107 1   
   108   99  108 1   
   109  100  109 1   
   110  100  110 1   
   111  100  111 1   
   112  112  113 1   
   113  112  119 1   
   114  113  114 1   
   115  113  116 1   
   116  113  120 1   
   117  114  115 2   
   118  114  126 1   
   119  116  117 1   
   120  116  118 1   
   121  116  121 1   
   122  117  123 1   
   123  117  124 1   
   124  117  125 1   
   125  118  122 1   
   126  126  127 1   
   127  126  133 1   
   128  127  128 1   
   129  127  130 1   
   130  127  134 1   
   131  128  129 2   
   132  128  140 1   
   133  130  131 1   
   134  130  132 1   
   135  130  135 1   
   136  131  137 1   
   137  131  138 1   
   138  131  139 1   
   139  132  136 1   
   140  140  141 1   
   141  140  149 1   
   142  141  142 1   
   143  141  144 1   
   144  141  150 1   
   145  142  143 2   
   146  142  162 1   
   147  144  145 1   
   148  144  151 1   
   149  144  152 1   
   150  145  146 1   
   151  145  153 1   
   152  145  154 1   
   153  146  147 1   
   154  146  155 1   
   155  146  156 1   
   156  147  148 1   
   157  147  157 1   
   158  147  158 1   
   159  148  159 1   
   160  148  160 1   
   161  148  161 1   
   162  162  163 1   
   163  162  171 1   
   164  163  164 1   
   165  163  166 1   
   166  163  172 1   
   167  164  165 2   
   168  164  177 1   
   169  166  167 1   
   170  166  173 1   
   171  166  174 1   
   172  167  168 1   
   173  167  175 1   
   174  167  176 1   
   175  168  169 1   
   176  168  170 1   
   177  177  178 1   
   178  177  182 1   
   179  178  179 1   
   180  178  180 1   
   181  178  181 1   
   182  184  185 1   
   183  184  186 1   
@<TRIPOS>SUBSTRUCTURE
     1 MOL         1 TEMP              0 ****  ****    0 ROOT
