@<TRIPOS>MOLECULE
MOL
  192   187     1     0     0
SMALL
resp


@<TRIPOS>ATOM
      1 C1         -0.0530   -3.7040    3.7400 c3        1 MOL     -0.399555
      2 C2          0.6590   -3.4380    2.3350 c         1 MOL      0.570176
      3 O1          1.3590   -2.4440    2.0960 o         1 MOL     -0.535904
      4 H1         -0.1950   -4.7760    3.8770 hc        1 MOL      0.104758
      5 H2          0.5720   -3.3150    4.5430 hc        1 MOL      0.104758
      6 H3         -1.0210   -3.2050    3.7570 hc        1 MOL      0.104758
      7 N1          0.4650   -4.3330    1.3850 n         1 MOL     -0.459386
      8 C3          1.2550   -4.5080    0.1270 c3        1 MOL     -0.005239
      9 C4          2.8060   -4.1290    0.2010 c         1 MOL      0.708995
     10 O2          3.2780   -3.2610   -0.5950 o         1 MOL     -0.519061
     11 C5          0.5360   -3.6270   -0.8580 c3        1 MOL     -0.347398
     12 C6         -1.0010   -3.8980   -0.9360 c         1 MOL      0.780251
     13 O3         -1.4170   -5.0870   -1.1970 o         1 MOL     -0.742908
     14 O4         -1.9090   -3.0210   -0.7070 o         1 MOL     -0.742908
     15 H4         -0.0960   -5.0870    1.7640 hn        1 MOL      0.233035
     16 H5          1.1330   -5.5500   -0.1570 h1        1 MOL      0.088661
     17 H6          0.9700   -3.7880   -1.8440 hc        1 MOL      0.119322
     18 H7          0.6520   -2.6100   -0.4830 hc        1 MOL      0.119322
     19 N2          3.6430   -4.8680    0.9410 n         1 MOL     -0.565608
     20 C7          5.0580   -4.6650    1.0430 c3        1 MOL      0.015613
     21 C8          5.8970   -5.4090   -0.0150 c         1 MOL      0.393347
     22 O5          5.5660   -6.5680   -0.3990 o         1 MOL     -0.590921
     23 C9          5.5560   -4.8750    2.5470 c3        1 MOL      0.250098
     24 C10         5.8270   -6.3690    2.8890 c3        1 MOL     -0.058168
     25 C11         4.5580   -4.2070    3.5020 c3        1 MOL     -0.245046
     26 C12         6.0750   -6.6970    4.3420 c3        1 MOL     -0.093575
     27 H8          3.2670   -5.7010    1.3820 hn        1 MOL      0.293974
     28 H9          5.2820   -3.6140    0.8510 h1        1 MOL      0.122497
     29 H10         6.4450   -4.2480    2.5870 hc        1 MOL      0.022692
     30 H11         6.6690   -6.7350    2.3180 hc        1 MOL      0.032221
     31 H12         4.9500   -6.9500    2.5910 hc        1 MOL      0.032221
     32 H13         3.6370   -4.7930    3.5040 hc        1 MOL      0.056318
     33 H14         5.0260   -4.2740    4.4760 hc        1 MOL      0.056318
     34 H15         4.4140   -3.1590    3.2540 hc        1 MOL      0.056318
     35 H16         6.8190   -6.0560    4.8310 hc        1 MOL      0.009908
     36 H17         5.1500   -6.5470    4.8790 hc        1 MOL      0.009908
     37 H18         6.4150   -7.7260    4.4550 hc        1 MOL      0.009908
     38 N3          7.0480   -4.9230   -0.4800 n         1 MOL     -0.378853
     39 C13         7.6200   -3.5730   -0.1460 c3        1 MOL     -0.085258
     40 C14         6.9640   -2.4250   -0.8750 c         1 MOL      0.905587
     41 O6          6.5600   -1.4460   -0.2420 o         1 MOL     -0.619944
     42 C15         9.1150   -3.7980   -0.5600 c3        1 MOL     -0.298332
     43 C16         9.8280   -2.5060   -0.3970 c         1 MOL      0.689784
     44 O7         10.4410   -1.9580   -1.3200 o         1 MOL     -0.699295
     45 O8          9.7280   -1.9110    0.6980 o         1 MOL     -0.699295
     46 H19         7.5260   -5.5190   -1.1430 hn        1 MOL      0.284892
     47 H20         7.5220   -3.3970    0.9300 h1        1 MOL      0.046459
     48 H21         9.1730   -4.0900   -1.6090 hc        1 MOL      0.051066
     49 H22         9.5380   -4.5820    0.0600 hc        1 MOL      0.051066
     50 N4          6.6370   -2.6860   -2.1600 n         1 MOL     -0.568435
     51 C17         5.8750   -1.6810   -2.9860 c3        1 MOL     -0.180917
     52 C18         6.4610   -0.2870   -3.2780 c         1 MOL      0.494940
     53 O9          7.7130   -0.0900   -3.2730 o         1 MOL     -0.483707
     54 H23         7.0680   -3.4910   -2.6020 hn        1 MOL      0.335028
     55 H24         4.9160   -1.4310   -2.5320 h1        1 MOL      0.122272
     56 H25         5.7600   -2.1630   -3.9490 h1        1 MOL      0.122272
     57 N5          5.5050    0.6370   -3.4560 n         1 MOL     -0.486172
     58 C19         5.8200    2.0430   -3.3790 c3        1 MOL      0.127278
     59 C20         6.3350    2.4570   -1.9450 c         1 MOL      0.378998
     60 O10         7.1790    3.3480   -1.9630 o         1 MOL     -0.554929
     61 C21         4.5450    2.8350   -3.6100 c3        1 MOL     -0.101026
     62 C22         3.3310    2.3990   -2.7120 c         1 MOL      0.564948
     63 O11         2.9150    1.2030   -2.7880 o         1 MOL     -0.611317
     64 O12         2.7050    3.1510   -1.9150 o         1 MOL     -0.611317
     65 H26         4.5530    0.4160   -3.2020 hn        1 MOL      0.200919
     66 H27         6.5060    2.4510   -4.1140 h1        1 MOL      0.061131
     67 H28         4.3540    2.7180   -4.6700 hc        1 MOL      0.018438
     68 H29         4.7130    3.9180   -3.5970 hc        1 MOL      0.018438
     69 N6          5.8680    1.9910   -0.7630 n         1 MOL     -0.006524
     70 C23         6.2850    2.4830    0.5420 c3        1 MOL     -0.345923
     71 C24         5.5680    3.8360    0.8370 c         1 MOL      0.471437
     72 O13         6.0170    4.5540    1.7410 o         1 MOL     -0.581798
     73 H30         5.1310    1.3040   -0.8920 hn        1 MOL      0.249390
     74 H31         7.3700    2.6190    0.6310 h1        1 MOL      0.173536
     75 H32         6.0060    1.8410    1.3810 h1        1 MOL      0.173536
     76 N7          4.5260    4.2700    0.0650 n         1 MOL     -0.037219
     77 C25         3.5810    5.4470    0.1100 c3        1 MOL      0.089635
     78 C26         2.7080    5.6300    1.3910 c         1 MOL      0.415880
     79 O14         1.9450    6.5590    1.5350 o         1 MOL     -0.531713
     80 C27         4.2140    6.7150   -0.5360 c3        1 MOL     -0.183845
     81 C28         4.6490    6.4920   -1.9390 c3        1 MOL     -0.014580
     82 C29         5.1620    7.7510   -2.6770 c         1 MOL      0.657360
     83 N8          5.5440    7.6520   -3.9060 n         1 MOL     -0.809952
     84 O15         5.1640    8.9180   -2.2140 o         1 MOL     -0.602683
     85 H33         4.2220    3.5420   -0.5830 hn        1 MOL     -0.042076
     86 H34         2.8280    5.1080   -0.6050 h1        1 MOL      0.087358
     87 H35         5.0700    6.9740    0.0790 hc        1 MOL      0.063346
     88 H36         3.4920    7.5310   -0.4640 hc        1 MOL      0.063346
     89 H37         3.8690    6.0410   -2.5580 hc        1 MOL      0.020387
     90 H38         5.4940    5.8120   -1.9320 hc        1 MOL      0.020387
     91 H39         5.6710    6.7350   -4.3240 hn        1 MOL      0.359854
     92 H40         5.7640    8.5040   -4.4040 hn        1 MOL      0.359854
     93 N9          2.7220    4.6940    2.3310 n         1 MOL     -0.253040
     94 C30         2.0370    4.6830    3.6610 c3        1 MOL      0.065536
     95 C31         0.8020    3.7410    3.8200 c         1 MOL      0.458029
     96 O16         0.1340    3.7120    4.8730 o         1 MOL     -0.537444
     97 C32         2.9220    4.5300    4.8300 c3        1 MOL      0.307576
     98 C33         3.6340    3.1780    5.0240 c3        1 MOL     -0.368584
     99 C34         4.0510    5.6710    4.7290 c3        1 MOL     -0.368584
    100 H41         3.0840    3.7790    2.1110 hn        1 MOL      0.180441
    101 H42         1.5840    5.6590    3.8590 h1        1 MOL      0.065245
    102 H43         2.1930    4.7600    5.6150 hc        1 MOL     -0.058273
    103 H44         4.1280    3.2630    5.9960 hc        1 MOL      0.082150
    104 H45         2.8960    2.3660    4.9810 hc        1 MOL      0.082150
    105 H46         4.3250    3.0770    4.1890 hc        1 MOL      0.082150
    106 H47         3.5630    6.6410    4.8770 hc        1 MOL      0.082150
    107 H48         4.7700    5.6000    5.5480 hc        1 MOL      0.082150
    108 H49         4.5530    5.6530    3.7690 hc        1 MOL      0.082150
    109 N10         0.3740    3.1980    2.6650 n         1 MOL     -0.448305
    110 C35        -0.7950    2.2890    2.4700 c3        1 MOL      0.135563
    111 C36        -1.5630    2.5450    1.1580 c         1 MOL      0.614434
    112 O17        -1.0200    3.0290    0.2030 o         1 MOL     -0.489416
    113 C37        -0.1840    0.8740    2.6130 c3        1 MOL     -0.194224
    114 C38        -1.0550   -0.3180    2.1590 c         1 MOL      0.598793
    115 N11        -1.0340   -0.7290    0.9080 n         1 MOL     -0.520899
    116 O18        -1.7500   -0.8850    3.0090 o         1 MOL     -0.597810
    117 H50         0.9530    3.5530    1.9230 hn        1 MOL      0.238715
    118 H51        -1.4870    2.3050    3.3240 h1        1 MOL      0.062493
    119 H52         0.1740    0.5910    3.5960 hc        1 MOL      0.088982
    120 H53         0.6560    0.8720    1.9150 hc        1 MOL      0.088982
    121 H54        -0.3260   -0.4150    0.2470 hn        1 MOL      0.308286
    122 H55        -1.4650   -1.5870    0.6150 hn        1 MOL      0.308286
    123 N12        -2.7950    2.0080    1.1410 n         1 MOL     -0.721036
    124 C39        -3.6680    1.8760   -0.0520 c3        1 MOL      0.232164
    125 C40        -5.0650    1.7180    0.3230 c         1 MOL      0.760082
    126 O19        -5.2460    0.8750    1.2160 o         1 MOL     -0.604581
    127 C41        -3.2690    0.6720   -0.9240 c3        1 MOL     -0.130496
    128 C42        -3.9570    0.6170   -2.2310 ca        1 MOL     -0.083384
    129 C43        -4.7160   -0.5460   -2.5930 ca        1 MOL     -0.016914
    130 C44        -4.0150    1.7300   -3.1140 ca        1 MOL     -0.016914
    131 C45        -5.4730   -0.5090   -3.7710 ca        1 MOL     -0.336101
    132 C46        -4.7850    1.7380   -4.2530 ca        1 MOL     -0.336101
    133 C47        -5.5270    0.6590   -4.5420 ca        1 MOL      0.405483
    134 O20        -6.2730    0.6250   -5.7410 oh        1 MOL     -0.580505
    135 H56        -3.0950    1.4540    1.9270 hn        1 MOL      0.327640
    136 H57        -3.5200    2.7650   -0.6640 h1        1 MOL      0.041142
    137 H58        -3.4330   -0.3030   -0.4600 hc        1 MOL      0.070406
    138 H59        -2.2150    0.8260   -1.1480 hc        1 MOL      0.070406
    139 H60        -4.7600   -1.4010   -1.9280 ha        1 MOL      0.113751
    140 H61        -3.3970    2.5800   -2.9070 ha        1 MOL      0.113751
    141 H62        -6.1650   -1.3230   -3.9620 ha        1 MOL      0.168356
    142 H63        -4.8180    2.6080   -4.8980 ha        1 MOL      0.168356
    143 H64        -6.7190   -0.1780   -6.0220 ho        1 MOL      0.380267
    144 N13        -6.0120    2.4660   -0.3090 n         1 MOL     -0.895857
    145 C48        -7.4650    2.3200   -0.0090 c3        1 MOL      0.643782
    146 C49        -8.2360    1.8690   -1.2380 c         1 MOL      0.439896
    147 O21        -8.7120    2.6980   -2.0140 o         1 MOL     -0.549823
    148 C50        -8.0950    3.6040    0.6140 c3        1 MOL     -0.057646
    149 C51        -9.4740    3.3420    1.1640 c3        1 MOL     -0.369060
    150 C52       -10.0830    4.5550    1.8810 c         1 MOL      0.813033
    151 O22       -10.9200    5.2320    1.3520 o         1 MOL     -0.724498
    152 O23        -9.8960    4.8280    3.0920 o         1 MOL     -0.724498
    153 H65        -5.7700    3.1530   -1.0070 hn        1 MOL      0.346504
    154 H66        -7.5470    1.5290    0.7410 h1        1 MOL     -0.034541
    155 H67        -8.0440    4.4060   -0.1360 hc        1 MOL      0.002273
    156 H68        -7.5150    3.7450    1.5250 hc        1 MOL      0.002273
    157 H69        -9.3910    2.5080    1.8610 hc        1 MOL      0.084047
    158 H70       -10.0390    3.0900    0.2670 hc        1 MOL      0.084047
    159 N14        -8.4200    0.5880   -1.5100 n         1 MOL     -0.455535
    160 C53        -8.0970   -0.6540   -0.7340 c3        1 MOL     -0.080905
    161 C54        -8.7180   -0.8390    0.6820 c         1 MOL      0.453777
    162 O24        -9.8970   -0.4720    0.9020 o         1 MOL     -0.554878
    163 C55        -8.4930   -1.8080   -1.6660 c3        1 MOL      0.038296
    164 C56        -8.2850   -3.2350   -1.1090 c3        1 MOL     -0.191147
    165 C57        -6.8160   -3.4590   -0.8420 c         1 MOL      0.557028
    166 O25        -6.1280   -3.9850   -1.7810 o         1 MOL     -0.699341
    167 O26        -6.2780   -3.1020    0.2300 o         1 MOL     -0.699341
    168 H71        -8.7820    0.4040   -2.4400 hn        1 MOL      0.293425
    169 H72        -7.0070   -0.6890   -0.6650 h1        1 MOL      0.086164
    170 H73        -7.9020   -1.7880   -2.5890 hc        1 MOL      0.026248
    171 H74        -9.4820   -1.6530   -2.1000 hc        1 MOL      0.026248
    172 H75        -8.7600   -3.9650   -1.7630 hc        1 MOL      0.053630
    173 H76        -8.7550   -3.3840   -0.1370 hc        1 MOL      0.053630
    174 N15        -7.9010   -1.2870    1.6120 n         1 MOL     -0.112304
    175 C58        -8.1080   -1.4310    3.0720 c3        1 MOL     -0.282848
    176 H77        -8.3060   -2.4760    3.3100 h1        1 MOL      0.104558
    177 H78        -7.2130   -1.1010    3.6010 h1        1 MOL      0.104558
    178 H79        -8.9580   -0.8220    3.3810 h1        1 MOL      0.104558
    179 H80        -7.0110   -1.6850    1.3170 hn        1 MOL      0.214590
    180 Ca1        -4.0380   -4.5440   -0.5030 Ca        1 MOL      1.742092
    181 O27        -5.6190   -6.3210    0.6150 oh        1 MOL     -0.876166
    182 H81        -5.7370   -6.1960    1.5620 ho        1 MOL      0.415671
    183 H82        -6.2960   -6.9650    0.3820 ho        1 MOL      0.415671
    184 O28        -3.5850   -6.6400   -2.0030 oh        1 MOL     -0.876166
    185 O29        -3.5630   -3.9460   -3.1610 oh        1 MOL     -0.876166
    186 H83        -3.3400   -7.5060   -2.3310 ho        1 MOL      0.415671
    187 H84        -4.1780   -3.7820   -3.8780 ho        1 MOL      0.415671
    188 H85        -3.3520   -6.0460   -2.7220 ho        1 MOL      0.415671
    189 H86        -2.7000   -3.7760   -3.5480 ho        1 MOL      0.415671
    190 O30        -3.8510   -3.0370    1.6970 oh        1 MOL     -0.876166
    191 H87        -4.6780   -3.0370    2.1840 ho        1 MOL      0.415671
    192 H88        -3.3210   -2.3690    2.1390 ho        1 MOL      0.415671
@<TRIPOS>BOND
     1    1    2 1   
     2    1    4 1   
     3    1    5 1   
     4    1    6 1   
     5    2    3 2   
     6    2    7 1   
     7    7    8 1   
     8    7   15 1   
     9    8    9 1   
    10    8   11 1   
    11    8   16 1   
    12    9   10 2   
    13    9   19 1   
    14   11   12 1   
    15   11   17 1   
    16   11   18 1   
    17   12   13 1   
    18   12   14 1   
    19   19   20 1   
    20   19   27 1   
    21   20   21 1   
    22   20   23 1   
    23   20   28 1   
    24   21   22 2   
    25   21   38 1   
    26   23   24 1   
    27   23   25 1   
    28   23   29 1   
    29   24   26 1   
    30   24   30 1   
    31   24   31 1   
    32   25   32 1   
    33   25   33 1   
    34   25   34 1   
    35   26   35 1   
    36   26   36 1   
    37   26   37 1   
    38   38   39 1   
    39   38   46 1   
    40   39   40 1   
    41   39   42 1   
    42   39   47 1   
    43   40   41 2   
    44   40   50 1   
    45   42   43 1   
    46   42   48 1   
    47   42   49 1   
    48   43   44 1   
    49   43   45 1   
    50   50   51 1   
    51   50   54 1   
    52   51   52 1   
    53   51   55 1   
    54   51   56 1   
    55   52   53 2   
    56   52   57 1   
    57   57   58 1   
    58   57   65 1   
    59   58   59 1   
    60   58   61 1   
    61   58   66 1   
    62   59   60 2   
    63   59   69 1   
    64   61   62 1   
    65   61   67 1   
    66   61   68 1   
    67   62   63 1   
    68   62   64 1   
    69   69   70 1   
    70   69   73 1   
    71   70   71 1   
    72   70   74 1   
    73   70   75 1   
    74   71   72 2   
    75   71   76 1   
    76   76   77 1   
    77   76   85 1   
    78   77   78 1   
    79   77   80 1   
    80   77   86 1   
    81   78   79 2   
    82   78   93 1   
    83   80   81 1   
    84   80   87 1   
    85   80   88 1   
    86   81   82 1   
    87   81   89 1   
    88   81   90 1   
    89   82   83 1   
    90   82   84 2   
    91   83   91 1   
    92   83   92 1   
    93   93   94 1   
    94   93  100 1   
    95   94   95 1   
    96   94   97 1   
    97   94  101 1   
    98   95   96 2   
    99   95  109 1   
   100   97   98 1   
   101   97   99 1   
   102   97  102 1   
   103   98  103 1   
   104   98  104 1   
   105   98  105 1   
   106   99  106 1   
   107   99  107 1   
   108   99  108 1   
   109  109  110 1   
   110  109  117 1   
   111  110  111 1   
   112  110  113 1   
   113  110  118 1   
   114  111  112 2   
   115  111  123 1   
   116  113  114 1   
   117  113  119 1   
   118  113  120 1   
   119  114  115 1   
   120  114  116 2   
   121  115  121 1   
   122  115  122 1   
   123  123  124 1   
   124  123  135 1   
   125  124  125 1   
   126  124  127 1   
   127  124  136 1   
   128  125  126 2   
   129  125  144 1   
   130  127  128 1   
   131  127  137 1   
   132  127  138 1   
   133  128  129 ar  
   134  128  130 ar  
   135  129  131 ar  
   136  129  139 1   
   137  130  132 ar  
   138  130  140 1   
   139  131  133 ar  
   140  131  141 1   
   141  132  133 ar  
   142  132  142 1   
   143  133  134 1   
   144  134  143 1   
   145  144  145 1   
   146  144  153 1   
   147  145  146 1   
   148  145  148 1   
   149  145  154 1   
   150  146  147 2   
   151  146  159 1   
   152  148  149 1   
   153  148  155 1   
   154  148  156 1   
   155  149  150 1   
   156  149  157 1   
   157  149  158 1   
   158  150  151 1   
   159  150  152 1   
   160  159  160 1   
   161  159  168 1   
   162  160  161 1   
   163  160  163 1   
   164  160  169 1   
   165  161  162 2   
   166  161  174 1   
   167  163  164 1   
   168  163  170 1   
   169  163  171 1   
   170  164  165 1   
   171  164  172 1   
   172  164  173 1   
   173  165  166 1   
   174  165  167 1   
   175  174  175 1   
   176  174  179 1   
   177  175  176 1   
   178  175  177 1   
   179  175  178 1   
   180  181  182 1   
   181  181  183 1   
   182  184  186 1   
   183  184  188 1   
   184  185  187 1   
   185  185  189 1   
   186  190  191 1   
   187  190  192 1   
@<TRIPOS>SUBSTRUCTURE
     1 MOL         1 TEMP              0 ****  ****    0 ROOT
