@<TRIPOS>MOLECULE
MOL
  181   177     1     0     0
SMALL
resp


@<TRIPOS>ATOM
      1 C1         -3.7390    1.7560    4.5470 c3        1 MOL     -0.434365
      2 C2         -4.9910    0.8860    4.4130 c         1 MOL      0.756361
      3 O1         -5.2770   -0.0370    5.1510 o         1 MOL     -0.579119
      4 H1         -3.3880    1.7310    5.5780 hc        1 MOL      0.113715
      5 H2         -2.9580    1.3730    3.8890 hc        1 MOL      0.113715
      6 H3         -3.9770    2.7830    4.2690 hc        1 MOL      0.113715
      7 N1         -5.7770    1.1800    3.3290 n         1 MOL     -0.825772
      8 C3         -7.1420    0.5740    3.1390 c3        1 MOL      0.501082
      9 C4         -7.2720    0.1970    1.6380 c         1 MOL      0.565532
     10 O2         -7.3550    1.0570    0.8000 o         1 MOL     -0.576967
     11 C5         -8.2980    1.3810    3.6980 c3        1 MOL     -0.441170
     12 C6         -9.6010    0.7240    3.3870 c         1 MOL      0.800399
     13 O3        -10.6720    1.4260    3.4670 o         1 MOL     -0.749965
     14 O4         -9.7470   -0.4930    3.1690 o         1 MOL     -0.749965
     15 H4         -5.6770    2.1170    2.9600 hn        1 MOL      0.358054
     16 H5         -7.1290   -0.3750    3.6740 h1        1 MOL     -0.015082
     17 H6         -8.3120    2.3970    3.3030 hc        1 MOL      0.070237
     18 H7         -8.2030    1.4270    4.7810 hc        1 MOL      0.070237
     19 N2         -7.1640   -1.0330    1.2590 n         1 MOL     -0.621647
     20 C7         -7.0260   -1.5620   -0.1360 c3        1 MOL      0.537587
     21 C8         -5.5970   -1.7340   -0.6630 c         1 MOL      0.422739
     22 O5         -4.5840   -1.7530    0.0410 o         1 MOL     -0.517954
     23 C9         -7.6870   -2.9340   -0.2310 c3        1 MOL     -0.489239
     24 H8         -7.0620   -1.7620    1.9390 hn        1 MOL      0.292899
     25 H9         -7.6020   -0.8620   -0.7410 h1        1 MOL      0.025351
     26 H10        -6.9540   -3.5970    0.2300 hc        1 MOL      0.116975
     27 H11        -8.5380   -2.9640    0.4600 hc        1 MOL      0.116975
     28 H12        -7.9380   -3.2160   -1.2490 hc        1 MOL      0.116975
     29 N3         -5.4710   -2.0030   -1.9810 n         1 MOL     -0.726294
     30 C10        -4.2240   -2.1330   -2.8060 c3        1 MOL      0.157257
     31 C11        -3.9660   -3.5180   -3.4210 c         1 MOL      0.563493
     32 O6         -3.8640   -3.6260   -4.6360 o         1 MOL     -0.520767
     33 C12        -4.0860   -0.9570   -3.8480 c3        1 MOL     -0.224433
     34 C13        -4.5090    0.4340   -3.2910 c         1 MOL      0.784905
     35 O7         -5.6100    0.9350   -3.5430 o         1 MOL     -0.741899
     36 O8         -3.6210    1.0420   -2.6160 o         1 MOL     -0.741899
     37 H13        -6.2610   -2.2010   -2.5690 hn        1 MOL      0.361988
     38 H14        -3.3860   -1.9130   -2.1520 h1        1 MOL      0.075834
     39 H15        -4.7830   -1.2110   -4.6550 hc        1 MOL      0.054123
     40 H16        -3.0680   -0.9830   -4.2310 hc        1 MOL      0.054123
     41 N4         -3.8500   -4.5470   -2.5920 n         1 MOL     -0.413785
     42 C14        -3.4490   -5.9050   -2.9980 c3        1 MOL     -0.169994
     43 C15        -1.9800   -6.2090   -2.7880 c         1 MOL      0.686757
     44 O9         -1.5270   -7.2400   -3.2380 o         1 MOL     -0.608864
     45 H17        -3.9680   -4.4110   -1.5910 hn        1 MOL      0.310792
     46 H18        -3.6600   -5.9460   -4.0720 h1        1 MOL      0.103516
     47 H19        -4.0670   -6.6010   -2.4170 h1        1 MOL      0.103516
     48 N5         -1.2270   -5.3190   -2.1490 n         1 MOL     -0.512822
     49 C16         0.2680   -5.3160   -2.1380 c3        1 MOL      0.204528
     50 C17         0.7390   -5.0560   -0.6600 c         1 MOL      0.387570
     51 O10         0.6110   -3.9360   -0.1080 o         1 MOL     -0.396554
     52 C18         0.9030   -4.3500   -3.1370 c3        1 MOL     -0.140442
     53 C19         0.6540   -4.7140   -4.5970 c         1 MOL      0.633869
     54 N6          1.1340   -5.8200   -5.1230 n         1 MOL     -0.690986
     55 O11         0.0550   -3.9120   -5.2660 o         1 MOL     -0.521480
     56 H20        -1.6180   -4.4840   -1.7400 hn        1 MOL      0.257470
     57 H21         0.6900   -6.2950   -2.3850 h1        1 MOL     -0.000327
     58 H22         1.9760   -4.4420   -2.9540 hc        1 MOL      0.058135
     59 H23         0.5170   -3.3510   -2.9200 hc        1 MOL      0.058135
     60 H24         1.7330   -6.4360   -4.5870 hn        1 MOL      0.321466
     61 H25         1.1590   -5.9170   -6.1260 hn        1 MOL      0.321466
     62 N7          1.3500   -6.0730   -0.0300 n         1 MOL     -0.474100
     63 C20         1.8910   -6.1340    1.3380 c3        1 MOL     -0.016068
     64 C21         3.2300   -5.4180    1.4140 c         1 MOL      0.371505
     65 O12         3.7530   -4.9050    0.4340 o         1 MOL     -0.388308
     66 H26         1.2410   -6.9690   -0.4790 hn        1 MOL      0.298388
     67 H27         1.9200   -7.1460    1.7490 h1        1 MOL      0.090961
     68 H28         1.2650   -5.5560    2.0070 h1        1 MOL      0.090961
     69 N8          3.9240   -5.3380    2.5440 n         1 MOL     -0.251007
     70 C22         5.2380   -4.7040    2.8400 c3        1 MOL     -0.427145
     71 C23         5.0720   -3.1790    2.9940 c         1 MOL      0.644144
     72 O13         6.1010   -2.5500    3.1700 o         1 MOL     -0.567327
     73 C24         5.9880   -5.4020    3.9880 c3        1 MOL      0.542859
     74 C25         5.4360   -5.0770    5.4290 c3        1 MOL     -0.404677
     75 O14         6.0870   -6.8460    3.8370 oh        1 MOL     -0.655477
     76 H29         3.6080   -6.0080    3.2290 hn        1 MOL      0.175799
     77 H30         5.7780   -4.8500    1.9010 h1        1 MOL      0.193470
     78 H31         6.9540   -4.9060    4.0620 h1        1 MOL      0.028396
     79 H32         5.2360   -7.2090    4.1240 ho        1 MOL      0.403122
     80 H33         5.7500   -4.0310    5.5180 hc        1 MOL      0.098824
     81 H34         4.3740   -5.2390    5.5810 hc        1 MOL      0.098824
     82 H35         5.9780   -5.6310    6.1940 hc        1 MOL      0.098824
     83 N9          3.8560   -2.6670    3.0800 n         1 MOL     -0.437999
     84 C26         3.4640   -1.2910    3.2460 c3        1 MOL      0.026841
     85 C27         2.4160   -0.9620    2.1890 c         1 MOL      0.579626
     86 O15         1.4150   -1.7060    1.8870 o         1 MOL     -0.519169
     87 C28         2.9550   -0.9680    4.6880 c3        1 MOL      0.109743
     88 C29         3.9940   -1.2470    5.8720 c3        1 MOL     -0.057927
     89 C30         2.3850    0.4890    4.9030 c3        1 MOL     -0.122173
     90 C31         5.0970   -0.1310    5.8770 c3        1 MOL      0.060843
     91 H36         3.1270   -3.3570    3.0840 hn        1 MOL      0.265297
     92 H37         4.3130   -0.6120    3.1200 h1        1 MOL      0.057360
     93 H38         2.1820   -1.7400    4.7550 hc        1 MOL     -0.012692
     94 H39         4.5190   -2.1980    5.8560 hc        1 MOL      0.006498
     95 H40         3.5010   -1.1840    6.8370 hc        1 MOL      0.006498
     96 H41         2.0270    0.5470    5.9320 hc        1 MOL      0.033241
     97 H42         3.1290    1.2750    4.8260 hc        1 MOL      0.033241
     98 H43         1.5790    0.6650    4.1890 hc        1 MOL      0.033241
     99 H44         4.8900    0.6620    6.6070 hc        1 MOL     -0.012162
    100 H45         6.1200   -0.4440    6.0640 hc        1 MOL     -0.012162
    101 H46         5.1730    0.4370    4.9450 hc        1 MOL     -0.012162
    102 N10         2.5740    0.1990    1.6170 n         1 MOL     -0.606343
    103 C32         1.6630    0.8630    0.6590 c3        1 MOL      0.248970
    104 C33         2.4590    1.5960   -0.4150 c         1 MOL      0.492369
    105 O16         2.1130    2.6320   -0.8700 o         1 MOL     -0.434994
    106 C34         0.7550    1.7680    1.4640 c3        1 MOL      0.016990
    107 C35        -0.4600    2.2470    0.6040 c         1 MOL      0.540413
    108 O17        -0.7730    1.5550   -0.3740 o         1 MOL     -0.698560
    109 O18        -1.2930    3.1440    0.9890 o         1 MOL     -0.698560
    110 H47         3.4130    0.7130    1.8240 hn        1 MOL      0.278224
    111 H48         1.2010    0.0230    0.1390 h1        1 MOL      0.057132
    112 H49         1.2750    2.6260    1.8780 hc        1 MOL      0.005859
    113 H50         0.3840    1.2830    2.3640 hc        1 MOL      0.005859
    114 N11         3.5910    0.9890   -0.8210 n         1 MOL     -0.464493
    115 C36         4.4590    1.5730   -1.8240 c3        1 MOL      0.130030
    116 C37         5.0350    2.9550   -1.3990 c         1 MOL      0.216287
    117 O19         5.5290    3.0500   -0.2850 o         1 MOL     -0.475287
    118 C38         5.7550    0.6740   -1.9230 c3        1 MOL     -0.294274
    119 C39         5.4450   -0.8130   -2.3080 ca        1 MOL      0.058035
    120 C40         5.9010   -1.8410   -1.4210 ca        1 MOL     -0.182776
    121 C41         4.6370   -1.1660   -3.4580 ca        1 MOL     -0.182776
    122 C42         5.5760   -3.2330   -1.6870 ca        1 MOL     -0.041367
    123 C43         4.3760   -2.5340   -3.7090 ca        1 MOL     -0.041367
    124 C44         4.8370   -3.5360   -2.8590 ca        1 MOL     -0.175999
    125 H51         3.7710    0.0150   -0.5980 hn        1 MOL      0.313885
    126 H52         3.9110    1.6180   -2.7580 h1        1 MOL      0.075127
    127 H53         6.2810    0.7330   -0.9620 hc        1 MOL      0.129763
    128 H54         6.4170    1.1580   -2.6460 hc        1 MOL      0.129763
    129 H55         6.5350   -1.8390   -0.5460 ha        1 MOL      0.131212
    130 H56         4.1600   -0.4460   -4.1030 ha        1 MOL      0.131212
    131 H57         5.8780   -4.0860   -1.1000 ha        1 MOL      0.087455
    132 H58         3.8140   -2.8010   -4.5950 ha        1 MOL      0.087455
    133 H59         4.6100   -4.5790   -3.0430 ha        1 MOL      0.098285
    134 N12         5.1760    3.9330   -2.3480 n         1 MOL      0.016130
    135 C45         5.6850    5.1950   -1.9380 c3        1 MOL      0.072920
    136 C46         4.6420    6.0420   -1.1000 c         1 MOL      0.224278
    137 O20         5.1070    7.0450   -0.5210 o         1 MOL     -0.499581
    138 C47         5.9330    5.9290   -3.2860 c3        1 MOL     -0.332963
    139 C48         4.8550    5.3910   -4.2340 c3        1 MOL      0.078369
    140 C49         4.7620    3.9450   -3.7540 c3        1 MOL     -0.188562
    141 H60         6.5860    5.1620   -1.3210 h1        1 MOL      0.068669
    142 H61         5.8690    7.0020   -3.1200 hc        1 MOL      0.113992
    143 H62         6.8850    5.5050   -3.6100 hc        1 MOL      0.113992
    144 H63         3.9510    6.0000   -4.0810 hc        1 MOL      0.024364
    145 H64         5.0970    5.3500   -5.2950 hc        1 MOL      0.024364
    146 H65         3.7020    3.6670   -3.7650 h1        1 MOL      0.072926
    147 H66         5.3800    3.2460   -4.3060 h1        1 MOL      0.072926
    148 N13         3.3830    5.7210   -1.0210 n         1 MOL      0.142016
    149 C50         2.3530    6.5690   -0.4280 c3        1 MOL     -0.464728
    150 C51         2.6770    6.7580    1.0350 c         1 MOL      0.541616
    151 O21         2.5890    7.8200    1.5680 o         1 MOL     -0.532156
    152 C52         0.9360    5.9900   -0.5120 c3        1 MOL      0.255390
    153 C53         0.3480    5.7820   -1.8760 c3        1 MOL     -0.282454
    154 C54        -1.0220    5.0640   -1.7600 c         1 MOL      0.846755
    155 O22        -1.8860    5.4400   -0.9250 o         1 MOL     -0.791743
    156 O23        -1.2820    4.1310   -2.5480 o         1 MOL     -0.791743
    157 H67         3.0080    4.9400   -1.5370 hn        1 MOL      0.223015
    158 H68         2.2850    7.5500   -0.8930 h1        1 MOL      0.162954
    159 H69         0.2510    6.6610    0.0170 hc        1 MOL     -0.003021
    160 H70         0.8630    5.0800    0.0880 hc        1 MOL     -0.003021
    161 H71         1.0520    5.2570   -2.5140 hc        1 MOL      0.027078
    162 H72         0.0420    6.7380   -2.2820 hc        1 MOL      0.027078
    163 N14         3.3120    5.7060    1.6170 n         1 MOL     -0.213992
    164 C55         3.5430    5.7050    3.0720 c3        1 MOL     -0.199815
    165 H73         3.2360    6.6650    3.4880 h1        1 MOL      0.086228
    166 H74         2.9620    4.9060    3.5320 h1        1 MOL      0.086228
    167 H75         4.6030    5.5460    3.2710 h1        1 MOL      0.086228
    168 H76         3.3880    4.8980    1.0020 hn        1 MOL      0.173058
    169 Ca1        -3.0260    2.9510   -0.9230 Ca        1 MOL      1.747129
    170 O24        -3.4160    0.7320    0.3650 oh        1 MOL     -0.813573
    171 H77        -4.1050    0.0770    0.4100 ho        1 MOL      0.396899
    172 H78        -2.6080    0.2500    0.5350 ho        1 MOL      0.396899
    173 O25        -4.1510    4.2200    1.5720 oh        1 MOL     -0.813573
    174 H79        -5.0150    4.6290    1.6020 ho        1 MOL      0.396899
    175 H80        -3.7070    4.5180    2.3640 ho        1 MOL      0.396899
    176 O26        -5.7830    2.5010   -0.9330 oh        1 MOL     -0.813573
    177 H81        -6.3060    2.0830   -0.2480 ho        1 MOL      0.396899
    178 H82        -5.8020    1.8820   -1.6660 ho        1 MOL      0.396899
    179 O27        -4.4180    5.3460   -2.2910 oh        1 MOL     -0.813573
    180 H83        -4.0060    6.2070   -2.2470 ho        1 MOL      0.396899
    181 H84        -5.2970    5.5150   -2.6130 ho        1 MOL      0.396899
@<TRIPOS>BOND
     1    1    2 1   
     2    1    4 1   
     3    1    5 1   
     4    1    6 1   
     5    2    3 2   
     6    2    7 1   
     7    7    8 1   
     8    7   15 1   
     9    8    9 1   
    10    8   11 1   
    11    8   16 1   
    12    9   10 2   
    13    9   19 1   
    14   11   12 1   
    15   11   17 1   
    16   11   18 1   
    17   12   13 1   
    18   12   14 1   
    19   19   20 1   
    20   19   24 1   
    21   20   21 1   
    22   20   23 1   
    23   20   25 1   
    24   21   22 2   
    25   21   29 1   
    26   23   26 1   
    27   23   27 1   
    28   23   28 1   
    29   29   30 1   
    30   29   37 1   
    31   30   31 1   
    32   30   33 1   
    33   30   38 1   
    34   31   32 2   
    35   31   41 1   
    36   33   34 1   
    37   33   39 1   
    38   33   40 1   
    39   34   35 1   
    40   34   36 1   
    41   41   42 1   
    42   41   45 1   
    43   42   43 1   
    44   42   46 1   
    45   42   47 1   
    46   43   44 2   
    47   43   48 1   
    48   48   49 1   
    49   48   56 1   
    50   49   50 1   
    51   49   52 1   
    52   49   57 1   
    53   50   51 2   
    54   50   62 1   
    55   52   53 1   
    56   52   58 1   
    57   52   59 1   
    58   53   54 1   
    59   53   55 2   
    60   54   60 1   
    61   54   61 1   
    62   62   63 1   
    63   62   66 1   
    64   63   64 1   
    65   63   67 1   
    66   63   68 1   
    67   64   65 2   
    68   64   69 1   
    69   69   70 1   
    70   69   76 1   
    71   70   71 1   
    72   70   73 1   
    73   70   77 1   
    74   71   72 2   
    75   71   83 1   
    76   73   74 1   
    77   73   75 1   
    78   73   78 1   
    79   74   80 1   
    80   74   81 1   
    81   74   82 1   
    82   75   79 1   
    83   83   84 1   
    84   83   91 1   
    85   84   85 1   
    86   84   87 1   
    87   84   92 1   
    88   85   86 2   
    89   85  102 1   
    90   87   88 1   
    91   87   89 1   
    92   87   93 1   
    93   88   90 1   
    94   88   94 1   
    95   88   95 1   
    96   89   96 1   
    97   89   97 1   
    98   89   98 1   
    99   90   99 1   
   100   90  100 1   
   101   90  101 1   
   102  102  103 1   
   103  102  110 1   
   104  103  104 1   
   105  103  106 1   
   106  103  111 1   
   107  104  105 2   
   108  104  114 1   
   109  106  107 1   
   110  106  112 1   
   111  106  113 1   
   112  107  108 1   
   113  107  109 1   
   114  114  115 1   
   115  114  125 1   
   116  115  116 1   
   117  115  118 1   
   118  115  126 1   
   119  116  117 2   
   120  116  134 1   
   121  118  119 1   
   122  118  127 1   
   123  118  128 1   
   124  119  120 ar  
   125  119  121 ar  
   126  120  122 ar  
   127  120  129 1   
   128  121  123 ar  
   129  121  130 1   
   130  122  124 ar  
   131  122  131 1   
   132  123  124 ar  
   133  123  132 1   
   134  124  133 1   
   135  134  135 1   
   136  134  140 1   
   137  135  136 1   
   138  135  138 1   
   139  135  141 1   
   140  136  137 2   
   141  136  148 1   
   142  138  139 1   
   143  138  142 1   
   144  138  143 1   
   145  139  140 1   
   146  139  144 1   
   147  139  145 1   
   148  140  146 1   
   149  140  147 1   
   150  148  149 1   
   151  148  157 1   
   152  149  150 1   
   153  149  152 1   
   154  149  158 1   
   155  150  151 2   
   156  150  163 1   
   157  152  153 1   
   158  152  159 1   
   159  152  160 1   
   160  153  154 1   
   161  153  161 1   
   162  153  162 1   
   163  154  155 1   
   164  154  156 1   
   165  163  164 1   
   166  163  168 1   
   167  164  165 1   
   168  164  166 1   
   169  164  167 1   
   170  170  171 1   
   171  170  172 1   
   172  173  174 1   
   173  173  175 1   
   174  176  177 1   
   175  176  178 1   
   176  179  180 1   
   177  179  181 1   
@<TRIPOS>SUBSTRUCTURE
     1 MOL         1 TEMP              0 ****  ****    0 ROOT
