@<TRIPOS>MOLECULE
MOL
  181   177     1     0     0
SMALL
resp


@<TRIPOS>ATOM
      1 C1          2.2800   -1.8520    4.7640 c3        1 MOL     -0.351038
      2 C2          3.3500   -1.3960    3.8170 c         1 MOL      0.623114
      3 O1          3.1210   -1.2610    2.6190 o         1 MOL     -0.520174
      4 H1          2.3180   -1.2500    5.6710 hc        1 MOL      0.095883
      5 H2          1.3040   -1.7370    4.2920 hc        1 MOL      0.095883
      6 H3          2.4400   -2.8990    5.0170 hc        1 MOL      0.095883
      7 N1          4.5010   -0.9260    4.3370 n         1 MOL     -0.528452
      8 C3          5.5500   -0.1010    3.7470 c3        1 MOL      0.242275
      9 C4          6.3190   -0.9230    2.6750 c         1 MOL      0.204047
     10 O2          6.6560   -0.2870    1.6560 o         1 MOL     -0.404003
     11 C5          6.5710    0.2960    4.8350 c3        1 MOL     -0.087610
     12 C6          7.7720    1.0890    4.3710 c         1 MOL      0.683324
     13 O3          8.8520    0.4400    4.1690 o         1 MOL     -0.709906
     14 O4          7.6790    2.3930    4.3060 o         1 MOL     -0.709906
     15 H4          4.4750   -0.9770    5.3490 hn        1 MOL      0.258971
     16 H5          5.1220    0.7480    3.2160 h1        1 MOL      0.048335
     17 H6          6.8820   -0.5340    5.4650 hc        1 MOL     -0.015216
     18 H7          6.0160    0.9480    5.5040 hc        1 MOL     -0.015216
     19 N2          6.6430   -2.2380    2.7640 n         1 MOL     -0.391185
     20 C7          7.3110   -3.0990    1.7700 c3        1 MOL      0.192774
     21 C8          6.7240   -3.0640    0.3530 c         1 MOL      0.363469
     22 O5          7.4370   -3.3320   -0.6340 o         1 MOL     -0.507829
     23 C9          8.8680   -2.7470    2.0280 c3        1 MOL     -0.545815
     24 H8          6.5350   -2.6840    3.6590 hn        1 MOL      0.258186
     25 H9          7.0290   -4.1220    1.9930 h1        1 MOL      0.041892
     26 H10         9.0050   -2.9140    3.0950 hc        1 MOL      0.168660
     27 H11         9.5820   -3.2990    1.4180 hc        1 MOL      0.168660
     28 H12         9.0740   -1.7140    1.7680 hc        1 MOL      0.168660
     29 N3          5.4240   -2.9040    0.2620 n         1 MOL     -0.293944
     30 C10         4.7430   -2.8610   -1.0340 c3        1 MOL      0.196499
     31 C11         5.2700   -1.8750   -2.0370 c         1 MOL      0.266757
     32 O6          5.2250   -2.0860   -3.2920 o         1 MOL     -0.446061
     33 C12         4.6430   -4.2730   -1.6650 c3        1 MOL     -0.139147
     34 C13         3.4450   -4.5780   -2.5880 c         1 MOL      0.661231
     35 O7          2.4570   -3.7500   -2.4130 o         1 MOL     -0.663582
     36 O8          3.4870   -5.5750   -3.3170 o         1 MOL     -0.663582
     37 H13         4.8680   -2.9200    1.1090 hn        1 MOL      0.229439
     38 H14         3.7050   -2.6370   -0.7750 h1        1 MOL     -0.010067
     39 H15         4.5590   -4.9700   -0.8320 hc        1 MOL      0.033087
     40 H16         5.6060   -4.4680   -2.1420 hc        1 MOL      0.033087
     41 N4          5.9660   -0.8130   -1.5230 n         1 MOL      0.013454
     42 C14         6.6110    0.1830   -2.3520 c3        1 MOL     -0.226551
     43 C15         5.5990    1.1570   -2.9110 c         1 MOL      0.608399
     44 O9          5.7210    1.6350   -4.0450 o         1 MOL     -0.576266
     45 H17         6.0230   -0.6140   -0.5280 hn        1 MOL      0.114351
     46 H18         7.2080   -0.3120   -3.1140 h1        1 MOL      0.110739
     47 H19         7.2600    0.8150   -1.7500 h1        1 MOL      0.110739
     48 N5          4.3990    1.4090   -2.2860 n         1 MOL     -0.373011
     49 C16         3.3060    2.2180   -2.8560 c3        1 MOL     -0.017331
     50 C17         3.2580    3.6910   -2.4910 c         1 MOL      0.508959
     51 O10         3.8560    4.1370   -1.5160 o         1 MOL     -0.521671
     52 C18         2.0360    1.4810   -2.4780 c3        1 MOL     -0.445500
     53 C19         2.1390    0.0180   -2.8870 c         1 MOL      0.712977
     54 N6          2.3790   -0.9100   -1.9350 n         1 MOL     -0.459985
     55 O11         1.8820   -0.2800   -4.0560 o         1 MOL     -0.575125
     56 H20         4.3190    1.0400   -1.3460 hn        1 MOL      0.212560
     57 H21         3.3210    2.1870   -3.9510 h1        1 MOL      0.106283
     58 H22         1.1550    1.9150   -2.9530 hc        1 MOL      0.142891
     59 H23         1.9030    1.4840   -1.3960 hc        1 MOL      0.142891
     60 H24         2.6430   -0.6150   -1.0070 hn        1 MOL      0.238847
     61 H25         2.4550   -1.9010   -2.1170 hn        1 MOL      0.238847
     62 N7          2.6790    4.5130   -3.3300 n         1 MOL     -0.293719
     63 C20         2.4370    5.9130   -3.1070 c3        1 MOL     -0.226932
     64 C21         0.9820    6.1120   -2.5290 c         1 MOL      0.611571
     65 O12         0.0660    5.3570   -2.7190 o         1 MOL     -0.485380
     66 H26         2.4920    4.1100   -4.2410 hn        1 MOL      0.258462
     67 H27         2.4370    6.4980   -4.0310 h1        1 MOL      0.117355
     68 H28         3.2210    6.2880   -2.4560 h1        1 MOL      0.117355
     69 N8          0.8900    7.1890   -1.6540 n         1 MOL     -0.489119
     70 C22        -0.4010    7.5350   -0.9560 c3        1 MOL     -0.426115
     71 C23        -0.9180    6.4980    0.0570 c         1 MOL      0.588287
     72 O13        -2.0230    6.6150    0.6290 o         1 MOL     -0.567193
     73 C24        -0.2920    8.9920   -0.3740 c3        1 MOL      0.563501
     74 C25         0.5780    8.9290    0.8610 c3        1 MOL     -0.262128
     75 O14         0.2870    9.9050   -1.2820 oh        1 MOL     -0.614440
     76 H29         1.6910    7.7940   -1.6300 hn        1 MOL      0.305139
     77 H30        -1.1850    7.6010   -1.6990 h1        1 MOL      0.177153
     78 H31        -1.2570    9.4300   -0.1130 h1        1 MOL     -0.049926
     79 H32        -0.3240    9.8170   -2.0210 ho        1 MOL      0.360871
     80 H33         1.4600    8.3380    0.6490 hc        1 MOL      0.074717
     81 H34         0.7800    9.9430    1.2030 hc        1 MOL      0.074717
     82 H35        -0.1380    8.5940    1.6050 hc        1 MOL      0.074717
     83 N9         -0.2330    5.3020    0.1750 n         1 MOL     -0.312133
     84 C26        -0.7610    4.1150    0.9730 c3        1 MOL      0.051490
     85 C27        -1.0280    2.9190    0.0380 c         1 MOL      0.454385
     86 O15        -0.2880    2.6520   -0.8960 o         1 MOL     -0.469707
     87 C28         0.1380    3.9140    2.2690 c3        1 MOL     -0.000799
     88 C29         1.5700    3.4730    1.9360 c3        1 MOL      0.119953
     89 C30         0.1550    5.2510    3.0500 c3        1 MOL     -0.246724
     90 C31         2.3890    3.1840    3.2110 c3        1 MOL     -0.284757
     91 H36         0.5160    5.1210   -0.4850 hn        1 MOL      0.251614
     92 H37        -1.7580    4.3050    1.3770 h1        1 MOL      0.054868
     93 H38        -0.2930    3.0980    2.8520 hc        1 MOL      0.019871
     94 H39         2.1120    4.1490    1.2800 hc        1 MOL      0.033517
     95 H40         1.4790    2.5760    1.3360 hc        1 MOL      0.033517
     96 H41         0.7840    6.0230    2.6170 hc        1 MOL      0.057070
     97 H42        -0.8530    5.6760    3.0650 hc        1 MOL      0.057070
     98 H43         0.5110    5.0450    4.0580 hc        1 MOL      0.057070
     99 H44         2.8390    4.0860    3.6070 hc        1 MOL      0.073859
    100 H45         1.8650    2.6160    3.9910 hc        1 MOL      0.073859
    101 H46         3.2110    2.5650    2.8620 hc        1 MOL      0.073859
    102 N10        -1.9850    2.0630    0.4060 n         1 MOL     -0.532900
    103 C32        -2.1460    0.8190   -0.3180 c3        1 MOL      0.199429
    104 C33        -3.6200    0.3070   -0.1280 c         1 MOL      0.433720
    105 O16        -3.8420   -0.8950   -0.2640 o         1 MOL     -0.429573
    106 C34        -1.0670   -0.1810    0.2270 c3        1 MOL     -0.048278
    107 C35        -1.0810   -1.4860   -0.6040 c         1 MOL      0.649721
    108 O17        -0.6090   -2.5440   -0.0730 o         1 MOL     -0.783093
    109 O18        -1.2620   -1.4290   -1.8380 o         1 MOL     -0.783093
    110 H47        -2.5760    2.3330    1.1740 hn        1 MOL      0.281229
    111 H48        -2.0900    0.9460   -1.3960 h1        1 MOL      0.077906
    112 H49        -1.2630   -0.3350    1.2890 hc        1 MOL      0.018572
    113 H50        -0.0540    0.1260   -0.0450 hc        1 MOL      0.018572
    114 N11        -4.5470    1.2420   -0.1260 n         1 MOL     -0.377012
    115 C36        -5.9570    0.9220   -0.2570 c3        1 MOL      0.093602
    116 C37        -6.4060   -0.1500    0.7720 c         1 MOL      0.209905
    117 O19        -6.0560   -0.1180    1.9150 o         1 MOL     -0.440246
    118 C38        -6.8410    2.1730   -0.0630 c3        1 MOL     -0.126669
    119 C39        -8.3560    1.9800   -0.3140 ca        1 MOL     -0.023946
    120 C40        -8.8080    1.6620   -1.6240 ca        1 MOL     -0.112905
    121 C41        -9.2250    1.8610    0.7900 ca        1 MOL     -0.112905
    122 C42       -10.2260    1.4150   -1.7550 ca        1 MOL     -0.167300
    123 C43       -10.5770    1.4880    0.6340 ca        1 MOL     -0.167300
    124 C44       -11.0970    1.2510   -0.6610 ca        1 MOL     -0.024651
    125 H51        -4.2550    2.2070   -0.2080 hn        1 MOL      0.242653
    126 H52        -6.1400    0.7010   -1.3060 h1        1 MOL      0.054739
    127 H53        -6.4860    2.9780   -0.7050 hc        1 MOL      0.079421
    128 H54        -6.7720    2.5730    0.9470 hc        1 MOL      0.079421
    129 H55        -8.2210    1.7770   -2.5260 ha        1 MOL      0.134862
    130 H56        -8.9080    1.8980    1.8190 ha        1 MOL      0.134862
    131 H57       -10.5900    1.1950   -2.7520 ha        1 MOL      0.115746
    132 H58       -11.3010    1.3900    1.4320 ha        1 MOL      0.115746
    133 H59       -12.1490    1.1110   -0.8630 ha        1 MOL      0.086739
    134 N12        -7.0650   -1.2280    0.2810 n         1 MOL      0.168529
    135 C45        -7.6090   -2.2240    1.1820 c3        1 MOL      0.020754
    136 C46        -6.5670   -2.9290    2.0200 c         1 MOL      0.293177
    137 O20        -6.9760   -3.6640    2.8790 o         1 MOL     -0.520811
    138 C47        -8.5360   -3.0870    0.3250 c3        1 MOL     -0.070104
    139 C48        -8.8270   -2.2850   -0.9660 c3        1 MOL     -0.051955
    140 C49        -7.5220   -1.5050   -1.0380 c3        1 MOL     -0.065062
    141 H60        -8.2150   -1.6050    1.8450 h1        1 MOL      0.048187
    142 H61        -7.8950   -3.9010   -0.0160 hc        1 MOL      0.053795
    143 H62        -9.3860   -3.5590    0.8220 hc        1 MOL      0.053795
    144 H63        -9.0060   -2.9970   -1.7730 hc        1 MOL      0.020060
    145 H64        -9.6860   -1.6320   -0.8010 hc        1 MOL      0.020060
    146 H65        -6.8010   -2.1590   -1.5290 h1        1 MOL      0.038996
    147 H66        -7.6910   -0.5690   -1.5810 h1        1 MOL      0.038996
    148 N13        -5.2490   -2.7770    1.7470 n         1 MOL      0.005449
    149 C50        -4.1890   -3.2680    2.6010 c3        1 MOL      0.020502
    150 C51        -3.5850   -2.2860    3.6570 c         1 MOL      0.332430
    151 O21        -3.1030   -2.6770    4.7150 o         1 MOL     -0.542182
    152 C52        -3.1160   -3.7100    1.6780 c3        1 MOL     -0.157080
    153 C53        -3.4570   -5.0580    1.1040 c3        1 MOL     -0.093777
    154 C54        -2.3290   -5.4440    0.1570 c         1 MOL      0.744586
    155 O22        -1.5450   -6.3790    0.4620 o         1 MOL     -0.751735
    156 O23        -2.2340   -4.9890   -1.0410 o         1 MOL     -0.751735
    157 H67        -4.9760   -2.1830    0.9720 hn        1 MOL      0.024252
    158 H68        -4.6020   -4.0980    3.1660 h1        1 MOL      0.092284
    159 H69        -2.1590   -3.8400    2.1860 hc        1 MOL      0.102994
    160 H70        -2.9340   -3.0810    0.8030 hc        1 MOL      0.102994
    161 H71        -4.4100   -5.0340    0.5640 hc        1 MOL      0.004655
    162 H72        -3.5700   -5.8010    1.8830 hc        1 MOL      0.004655
    163 N14        -3.8010   -0.9940    3.4680 n         1 MOL     -0.002025
    164 C55        -3.7070    0.2150    4.3350 c3        1 MOL     -0.158011
    165 H73        -3.2370   -0.0530    5.2820 h1        1 MOL      0.069921
    166 H74        -3.1070    0.9760    3.8360 h1        1 MOL      0.069921
    167 H75        -4.7060    0.6060    4.5250 h1        1 MOL      0.069921
    168 H76        -4.3820   -0.8220    2.6570 hn        1 MOL      0.067656
    169 Ca1        -0.1630   -4.0150   -2.2660 Ca        1 MOL      1.766637
    170 O24         0.7770   -5.7350   -4.0320 oh        1 MOL     -0.882730
    171 H77         0.7850   -6.6280   -4.3600 ho        1 MOL      0.420320
    172 H78         1.6950   -5.5020   -3.9430 ho        1 MOL      0.420320
    173 O25         0.8380   -5.7250   -0.5970 oh        1 MOL     -0.882730
    174 H79         0.1340   -6.1920   -0.1550 ho        1 MOL      0.420320
    175 H80         1.5870   -5.8210   -0.0080 ho        1 MOL      0.420320
    176 O26         0.4970   -2.5580   -4.4830 oh        1 MOL     -0.882730
    177 H81         0.1590   -2.7410   -5.3560 ho        1 MOL      0.420320
    178 H82         0.4270   -1.6090   -4.3920 ho        1 MOL      0.420320
    179 O27        -1.9570   -4.7530   -4.1250 oh        1 MOL     -0.882730
    180 H83        -2.8330   -5.0810   -3.9300 ho        1 MOL      0.420320
    181 H84        -1.8560   -4.8750   -5.0620 ho        1 MOL      0.420320
@<TRIPOS>BOND
     1    1    2 1   
     2    1    4 1   
     3    1    5 1   
     4    1    6 1   
     5    2    3 2   
     6    2    7 1   
     7    7    8 1   
     8    7   15 1   
     9    8    9 1   
    10    8   11 1   
    11    8   16 1   
    12    9   10 2   
    13    9   19 1   
    14   11   12 1   
    15   11   17 1   
    16   11   18 1   
    17   12   13 1   
    18   12   14 1   
    19   19   20 1   
    20   19   24 1   
    21   20   21 1   
    22   20   23 1   
    23   20   25 1   
    24   21   22 2   
    25   21   29 1   
    26   23   26 1   
    27   23   27 1   
    28   23   28 1   
    29   29   30 1   
    30   29   37 1   
    31   30   31 1   
    32   30   33 1   
    33   30   38 1   
    34   31   32 2   
    35   31   41 1   
    36   33   34 1   
    37   33   39 1   
    38   33   40 1   
    39   34   35 1   
    40   34   36 1   
    41   41   42 1   
    42   41   45 1   
    43   42   43 1   
    44   42   46 1   
    45   42   47 1   
    46   43   44 2   
    47   43   48 1   
    48   48   49 1   
    49   48   56 1   
    50   49   50 1   
    51   49   52 1   
    52   49   57 1   
    53   50   51 2   
    54   50   62 1   
    55   52   53 1   
    56   52   58 1   
    57   52   59 1   
    58   53   54 1   
    59   53   55 2   
    60   54   60 1   
    61   54   61 1   
    62   62   63 1   
    63   62   66 1   
    64   63   64 1   
    65   63   67 1   
    66   63   68 1   
    67   64   65 2   
    68   64   69 1   
    69   69   70 1   
    70   69   76 1   
    71   70   71 1   
    72   70   73 1   
    73   70   77 1   
    74   71   72 2   
    75   71   83 1   
    76   73   74 1   
    77   73   75 1   
    78   73   78 1   
    79   74   80 1   
    80   74   81 1   
    81   74   82 1   
    82   75   79 1   
    83   83   84 1   
    84   83   91 1   
    85   84   85 1   
    86   84   87 1   
    87   84   92 1   
    88   85   86 2   
    89   85  102 1   
    90   87   88 1   
    91   87   89 1   
    92   87   93 1   
    93   88   90 1   
    94   88   94 1   
    95   88   95 1   
    96   89   96 1   
    97   89   97 1   
    98   89   98 1   
    99   90   99 1   
   100   90  100 1   
   101   90  101 1   
   102  102  103 1   
   103  102  110 1   
   104  103  104 1   
   105  103  106 1   
   106  103  111 1   
   107  104  105 2   
   108  104  114 1   
   109  106  107 1   
   110  106  112 1   
   111  106  113 1   
   112  107  108 1   
   113  107  109 1   
   114  114  115 1   
   115  114  125 1   
   116  115  116 1   
   117  115  118 1   
   118  115  126 1   
   119  116  117 2   
   120  116  134 1   
   121  118  119 1   
   122  118  127 1   
   123  118  128 1   
   124  119  120 ar  
   125  119  121 ar  
   126  120  122 ar  
   127  120  129 1   
   128  121  123 ar  
   129  121  130 1   
   130  122  124 ar  
   131  122  131 1   
   132  123  124 ar  
   133  123  132 1   
   134  124  133 1   
   135  134  135 1   
   136  134  140 1   
   137  135  136 1   
   138  135  138 1   
   139  135  141 1   
   140  136  137 2   
   141  136  148 1   
   142  138  139 1   
   143  138  142 1   
   144  138  143 1   
   145  139  140 1   
   146  139  144 1   
   147  139  145 1   
   148  140  146 1   
   149  140  147 1   
   150  148  149 1   
   151  148  157 1   
   152  149  150 1   
   153  149  152 1   
   154  149  158 1   
   155  150  151 2   
   156  150  163 1   
   157  152  153 1   
   158  152  159 1   
   159  152  160 1   
   160  153  154 1   
   161  153  161 1   
   162  153  162 1   
   163  154  155 1   
   164  154  156 1   
   165  163  164 1   
   166  163  168 1   
   167  164  165 1   
   168  164  166 1   
   169  164  167 1   
   170  170  171 1   
   171  170  172 1   
   172  173  174 1   
   173  173  175 1   
   174  176  177 1   
   175  176  178 1   
   176  179  180 1   
   177  179  181 1   
@<TRIPOS>SUBSTRUCTURE
     1 MOL         1 TEMP              0 ****  ****    0 ROOT
