@<TRIPOS>MOLECULE
MOL
  195   189     1     0     0
SMALL
resp


@<TRIPOS>ATOM
      1 C1          1.2260    7.7810   -2.4080 c3        1 MOL     -0.254766
      2 C2          1.4400    6.3020   -2.1970 c         1 MOL      0.598878
      3 O1          1.3410    5.4310   -3.1030 o         1 MOL     -0.594356
      4 H1          0.7420    8.2060   -1.5290 hc        1 MOL      0.071664
      5 H2          2.1890    8.2680   -2.5630 hc        1 MOL      0.071664
      6 H3          0.5940    7.9360   -3.2820 hc        1 MOL      0.071664
      7 N1          1.7530    5.8890   -0.9800 n         1 MOL     -0.319658
      8 C3          2.0070    4.4820   -0.5670 c3        1 MOL      0.008735
      9 C4          0.6900    3.6650   -0.2370 c         1 MOL      0.403846
     10 O2          0.7600    2.4640   -0.3280 o         1 MOL     -0.405607
     11 C5          2.9900    4.4330    0.6190 c3        1 MOL     -0.118408
     12 C6          2.6330    5.2370    1.8500 c         1 MOL      0.678060
     13 O3          2.4100    6.4590    1.7360 o         1 MOL     -0.703746
     14 O4          2.3400    4.6410    2.9300 o         1 MOL     -0.703746
     15 H4          1.9540    6.5900   -0.2840 hn        1 MOL      0.209363
     16 H5          2.5870    3.9110   -1.2940 h1        1 MOL      0.096493
     17 H6          3.9510    4.8270    0.2670 hc        1 MOL      0.029241
     18 H7          3.2420    3.4060    0.8860 hc        1 MOL      0.029241
     19 N2         -0.3770    4.3980    0.1330 n         1 MOL     -0.371214
     20 C7         -1.6630    3.8490    0.6530 c3        1 MOL     -0.006528
     21 C8         -2.5830    3.3030   -0.4760 c         1 MOL      0.569294
     22 O5         -2.8550    4.0650   -1.3900 o         1 MOL     -0.590251
     23 C9         -2.3790    5.0000    1.3750 c3        1 MOL     -0.216285
     24 C10        -1.6570    5.9330    2.4260 c3        1 MOL     -0.000740
     25 C11        -1.1510    5.2140    3.7110 c3        1 MOL     -0.182131
     26 C12        -0.3860    6.2760    4.5910 c3        1 MOL      0.089792
     27 N3          0.8520    6.8270    4.0060 n4        1 MOL     -0.441844
     28 H8         -0.3610    5.4030    0.0180 hn        1 MOL      0.237462
     29 H9         -1.3370    3.0960    1.3720 h1        1 MOL      0.169291
     30 H10        -3.3030    4.5430    1.7250 hc        1 MOL      0.074433
     31 H11        -2.6950    5.7210    0.6180 hc        1 MOL      0.074433
     32 H12        -2.0700    6.9000    2.7230 hc        1 MOL      0.038657
     33 H13        -0.7680    6.1810    1.8320 hc        1 MOL      0.038657
     34 H14        -0.3910    4.4490    3.5380 hc        1 MOL      0.111252
     35 H15        -1.9030    4.7470    4.3350 hc        1 MOL      0.111252
     36 H16        -0.2960    5.7760    5.5590 hx        1 MOL      0.049031
     37 H17        -1.1230    7.0360    4.8830 hx        1 MOL      0.049031
     38 H18         1.5160    7.2100    4.6530 hn        1 MOL      0.331031
     39 H19         1.3190    6.0740    3.5290 hn        1 MOL      0.331031
     40 H20         0.6540    7.4940    3.2650 hn        1 MOL      0.331031
     41 N4         -3.1410    2.0850   -0.5840 n         1 MOL     -0.393755
     42 C13        -3.0830    0.9600    0.4470 c3        1 MOL      0.203927
     43 C14        -3.4350    1.4110    1.9150 c         1 MOL      0.368761
     44 O6         -2.5980    1.4390    2.8200 o         1 MOL     -0.585955
     45 C15        -1.7610    0.2630    0.3990 c3        1 MOL     -0.202930
     46 C16        -1.3790   -0.1900   -0.9670 c         1 MOL      0.401888
     47 O7         -2.2780   -0.2380   -1.8160 o         1 MOL     -0.556290
     48 O8         -0.2150   -0.3190   -1.3070 o         1 MOL     -0.556290
     49 H21        -3.7640    1.8950   -1.3630 hn        1 MOL      0.315253
     50 H22        -3.7450    0.1440    0.1730 h1        1 MOL     -0.070841
     51 H23        -1.7780   -0.6260    1.0160 hc        1 MOL      0.073476
     52 H24        -1.0050    0.9400    0.7910 hc        1 MOL      0.073476
     53 N5         -4.6670    1.8350    2.0930 n         1 MOL     -0.192962
     54 C17        -5.8090    1.6370    1.1520 c3        1 MOL     -0.199087
     55 C18        -7.0980    2.4900    1.4800 c         1 MOL      0.588033
     56 O9         -7.1510    3.2150    2.4980 o         1 MOL     -0.569200
     57 H25        -4.8740    2.1110    3.0330 hn        1 MOL      0.242577
     58 H26        -6.1500    0.6410    1.4330 h1        1 MOL      0.106118
     59 H27        -5.5180    1.8330    0.1150 h1        1 MOL      0.106118
     60 N6         -8.1990    2.3050    0.7140 n         1 MOL     -0.420800
     61 C19        -8.1010    1.6480   -0.6120 c3        1 MOL     -0.044073
     62 C20        -8.2330    0.1530   -0.3390 c         1 MOL      0.612005
     63 O10        -8.9460   -0.2620    0.6260 o         1 MOL     -0.481709
     64 C21        -9.1980    2.1520   -1.6140 c3        1 MOL     -0.169716
     65 C22       -10.5660    1.9370   -0.9730 c         1 MOL      0.696201
     66 O11       -10.9200    2.7080   -0.0290 o         1 MOL     -0.630522
     67 O12       -11.2750    1.0030   -1.4280 o         1 MOL     -0.630522
     68 H28        -9.1070    2.6070    1.0250 hn        1 MOL      0.300799
     69 H29        -7.1370    1.8190   -1.0980 h1        1 MOL      0.061929
     70 H30        -9.1750    1.5390   -2.5100 hc        1 MOL      0.029274
     71 H31        -9.1720    3.2280   -1.7720 hc        1 MOL      0.029274
     72 N7         -7.5780   -0.7700   -1.1310 n         1 MOL     -0.526607
     73 C23        -7.4050   -2.1970   -0.8410 c3        1 MOL     -0.059768
     74 C24        -6.0730   -2.5840   -0.1480 c         1 MOL      0.530575
     75 O13        -5.3410   -1.7320    0.3290 o         1 MOL     -0.441499
     76 H32        -6.9810   -0.4850   -1.8890 hn        1 MOL      0.339843
     77 H33        -7.2600   -2.7120   -1.7980 h1        1 MOL      0.080469
     78 H34        -8.2240   -2.5800   -0.2230 h1        1 MOL      0.080469
     79 N8         -5.8720   -3.9390    0.0140 n         1 MOL     -0.317665
     80 C25        -4.8110   -4.5370    0.8500 c3        1 MOL     -0.407346
     81 C26        -3.3810   -3.9550    0.8350 c         1 MOL      0.802515
     82 O14        -2.8460   -3.6260   -0.2530 o         1 MOL     -0.554811
     83 C27        -4.7350   -6.0680    0.5180 c3        1 MOL      0.492698
     84 C28        -4.1410   -6.3260   -0.8150 c3        1 MOL     -0.302738
     85 O15        -5.9710   -6.6510    0.5260 oh        1 MOL     -0.616610
     86 H35        -6.6290   -4.4920   -0.3620 hn        1 MOL      0.199450
     87 H36        -5.1600   -4.4540    1.8800 h1        1 MOL      0.151919
     88 H37        -4.1830   -6.4920    1.3480 h1        1 MOL      0.039893
     89 H38        -6.4420   -6.1630   -0.1630 ho        1 MOL      0.402227
     90 H39        -4.7810   -5.8140   -1.5280 hc        1 MOL      0.060434
     91 H40        -3.1150   -5.9680   -0.8400 hc        1 MOL      0.060434
     92 H41        -4.1180   -7.4070   -0.9670 hc        1 MOL      0.060434
     93 N9         -2.6910   -3.8700    1.9980 n         1 MOL     -0.646063
     94 C29        -1.2210   -3.6100    2.0340 c3        1 MOL      0.011336
     95 C30        -0.4440   -4.7420    1.3290 c         1 MOL      0.357679
     96 O16        -0.8240   -5.9240    1.4720 o         1 MOL     -0.520041
     97 C31        -0.8380   -3.4650    3.5490 c3        1 MOL      0.218392
     98 C32        -1.8990   -2.5940    4.2430 c3        1 MOL     -0.168630
     99 C33         0.6060   -2.8400    3.6990 c3        1 MOL     -0.495010
    100 C34        -1.3990   -2.4130    5.7110 c3        1 MOL     -0.271424
    101 H42        -3.1350   -4.2290    2.8370 hn        1 MOL      0.304314
    102 H43        -1.0380   -2.6730    1.4920 h1        1 MOL      0.032427
    103 H44        -0.9050   -4.4590    3.9870 hc        1 MOL      0.023289
    104 H45        -2.9460   -2.8950    4.1390 hc        1 MOL      0.132257
    105 H46        -1.7220   -1.6600    3.7170 hc        1 MOL      0.132257
    106 H47         1.1090   -3.4030    4.4870 hc        1 MOL      0.125114
    107 H48         1.2370   -3.0290    2.8260 hc        1 MOL      0.125114
    108 H49         0.4670   -1.7700    3.7970 hc        1 MOL      0.125114
    109 H50        -2.2550   -2.0820    6.2970 hc        1 MOL      0.076623
    110 H51        -1.0710   -3.3760    6.0870 hc        1 MOL      0.076623
    111 H52        -0.5790   -1.7170    5.8880 hc        1 MOL      0.076623
    112 N10         0.6410   -4.3230    0.6730 n         1 MOL     -0.126556
    113 C35         1.6120   -5.2120   -0.0920 c3        1 MOL     -0.080162
    114 C36         3.0670   -4.9000    0.2600 c         1 MOL      0.313304
    115 O17         3.8820   -5.8130    0.1720 o         1 MOL     -0.469335
    116 C37         1.4970   -5.1420   -1.6380 c3        1 MOL      0.299680
    117 C38         1.8790   -3.7860   -2.1510 c3        1 MOL      0.016707
    118 O18         0.1280   -5.4220   -1.9430 oh        1 MOL     -0.654354
    119 H53         0.7070   -3.3370    0.4550 hn        1 MOL      0.245185
    120 H54         1.4170   -6.2200    0.2760 h1        1 MOL      0.106928
    121 H55         2.1570   -5.8990   -2.0490 h1        1 MOL      0.030565
    122 H56        -0.2140   -6.1470   -1.4160 ho        1 MOL      0.396044
    123 H57         2.8980   -3.4750   -1.9210 hc        1 MOL      0.012185
    124 H58         1.8070   -3.9260   -3.2310 hc        1 MOL      0.012185
    125 H59         1.1430   -2.9990   -2.0100 hc        1 MOL      0.012185
    126 N11         3.2910   -3.7010    0.8350 n         1 MOL     -0.332186
    127 C39         4.6440   -3.3020    1.3970 c3        1 MOL      0.035646
    128 C40         5.7740   -3.1060    0.3010 c         1 MOL      0.391768
    129 O19         5.7780   -3.7500   -0.7110 o         1 MOL     -0.396259
    130 C41         5.1460   -4.2260    2.5850 c3        1 MOL      0.453422
    131 C42         4.2110   -4.3280    3.7070 c3        1 MOL     -0.372814
    132 O20         6.3150   -3.5700    3.1070 oh        1 MOL     -0.725416
    133 H60         2.5600   -3.0010    0.7570 hn        1 MOL      0.273653
    134 H61         4.5770   -2.2870    1.7840 h1        1 MOL      0.043281
    135 H62         5.5330   -5.1600    2.1790 h1        1 MOL      0.023492
    136 H63         6.7400   -4.2010    3.6920 ho        1 MOL      0.408703
    137 H64         4.0940   -3.3760    4.2220 hc        1 MOL      0.089388
    138 H65         3.2190   -4.5130    3.2810 hc        1 MOL      0.089388
    139 H66         4.4540   -5.1990    4.3190 hc        1 MOL      0.089388
    140 N12         6.7590   -2.2250    0.6280 n         1 MOL     -0.360012
    141 C43         7.8240   -1.8590   -0.3810 c3        1 MOL     -0.044510
    142 C44         7.3530   -0.9570   -1.5370 c         1 MOL      0.397472
    143 O21         7.8600   -1.0560   -2.6690 o         1 MOL     -0.494487
    144 C45         9.0520   -1.2310    0.3730 c3        1 MOL     -0.060409
    145 C46         8.6270    0.0930    1.1520 c3        1 MOL      0.095333
    146 C47         9.8780    0.6260    1.8690 c3        1 MOL     -0.043109
    147 C48         9.8030    1.9910    2.5670 c3        1 MOL      0.017401
    148 N13         8.9630    2.0320    3.7840 n4        1 MOL     -0.297733
    149 H67         6.6870   -1.8350    1.5570 hn        1 MOL      0.268949
    150 H68         8.1710   -2.8200   -0.7800 h1        1 MOL      0.139304
    151 H69         9.9500   -1.1350   -0.2390 hc        1 MOL      0.038208
    152 H70         9.2690   -1.8880    1.2090 hc        1 MOL      0.038208
    153 H71         7.8410   -0.0630    1.8930 hc        1 MOL     -0.034638
    154 H72         8.1770    0.7590    0.4090 hc        1 MOL     -0.034638
    155 H73        10.7990    0.5590    1.2810 hc        1 MOL      0.036597
    156 H74        10.0660   -0.1120    2.6530 hc        1 MOL      0.036597
    157 H75         9.5570    2.7400    1.8070 hx        1 MOL      0.081322
    158 H76        10.8140    2.2830    2.8540 hx        1 MOL      0.081322
    159 H77         7.9830    1.9170    3.5570 hn        1 MOL      0.273450
    160 H78         9.1430    1.2110    4.3450 hn        1 MOL      0.273450
    161 H79         9.1450    2.8890    4.2860 hn        1 MOL      0.273450
    162 N14         6.2520   -0.2690   -1.2460 n         1 MOL     -0.081508
    163 C49         5.6140    0.6940   -2.1800 c3        1 MOL     -0.033557
    164 C50         6.2840    2.0940   -2.2980 c         1 MOL      0.339350
    165 O22         5.7240    3.0790   -1.8580 o         1 MOL     -0.457736
    166 C51         4.1410    0.8380   -1.7230 c3        1 MOL      0.238986
    167 C52         3.2820   -0.4180   -1.8310 c3        1 MOL      0.224449
    168 C53         2.9930   -0.9440   -3.2480 c         1 MOL      0.501251
    169 O23         4.0060   -1.3140   -3.9080 o         1 MOL     -0.687076
    170 O24         1.8330   -0.9850   -3.7680 o         1 MOL     -0.687076
    171 H80         5.9610   -0.1590   -0.2840 hn        1 MOL      0.113242
    172 H81         5.6270    0.3640   -3.2130 h1        1 MOL      0.139210
    173 H82         3.7240    1.6840   -2.2640 hc        1 MOL     -0.054143
    174 H83         4.0400    1.2840   -0.7240 hc        1 MOL     -0.054143
    175 H84         2.3590   -0.2250   -1.2740 hc        1 MOL     -0.161443
    176 H85         3.7430   -1.2510   -1.2980 hc        1 MOL     -0.161443
    177 N15         7.5260    2.2000   -2.8010 n         1 MOL     -0.210677
    178 C54         8.3090    3.4400   -2.8580 c3        1 MOL     -0.235781
    179 H86         7.7180    4.2200   -3.3360 h1        1 MOL      0.104677
    180 H87         8.5700    3.7520   -1.8470 h1        1 MOL      0.104677
    181 H88         9.2190    3.2690   -3.4320 h1        1 MOL      0.104677
    182 H89         7.9940    1.3520   -3.0680 hn        1 MOL      0.202285
    183 Ca1        -0.6360   -0.5340   -3.9240 Ca        1 MOL      1.716744
    184 O25        -3.1660   -1.1200   -4.9830 oh        1 MOL     -0.900214
    185 H90        -3.8440   -0.8730   -5.6160 ho        1 MOL      0.438543
    186 H91        -2.8630   -1.9800   -5.2730 ho        1 MOL      0.438543
    187 O26        -2.1410    1.6470   -4.2040 oh        1 MOL     -0.900214
    188 H92        -2.8740    1.5750   -4.8200 ho        1 MOL      0.438543
    189 H93        -1.9030    2.5680   -4.2230 ho        1 MOL      0.438543
    190 O27         0.7490    1.7930   -3.1170 oh        1 MOL     -0.900214
    191 H94         0.5660    2.7170   -3.2330 ho        1 MOL      0.438543
    192 H95         0.6950    1.6570   -2.1750 ho        1 MOL      0.438543
    193 O28        -1.3870   -3.1570   -2.8370 oh        1 MOL     -0.900214
    194 H96        -1.8060   -3.2140   -1.9800 ho        1 MOL      0.438543
    195 H97        -1.0270   -4.0340   -2.9800 ho        1 MOL      0.438543
@<TRIPOS>BOND
     1    1    2 1   
     2    1    4 1   
     3    1    5 1   
     4    1    6 1   
     5    2    3 2   
     6    2    7 1   
     7    7    8 1   
     8    7   15 1   
     9    8    9 1   
    10    8   11 1   
    11    8   16 1   
    12    9   10 2   
    13    9   19 1   
    14   11   12 1   
    15   11   17 1   
    16   11   18 1   
    17   12   13 1   
    18   12   14 1   
    19   19   20 1   
    20   19   28 1   
    21   20   21 1   
    22   20   23 1   
    23   20   29 1   
    24   21   22 2   
    25   21   41 1   
    26   23   24 1   
    27   23   30 1   
    28   23   31 1   
    29   24   25 1   
    30   24   32 1   
    31   24   33 1   
    32   25   26 1   
    33   25   34 1   
    34   25   35 1   
    35   26   27 1   
    36   26   36 1   
    37   26   37 1   
    38   27   38 1   
    39   27   39 1   
    40   27   40 1   
    41   41   42 1   
    42   41   49 1   
    43   42   43 1   
    44   42   45 1   
    45   42   50 1   
    46   43   44 2   
    47   43   53 1   
    48   45   46 1   
    49   45   51 1   
    50   45   52 1   
    51   46   47 1   
    52   46   48 1   
    53   53   54 1   
    54   53   57 1   
    55   54   55 1   
    56   54   58 1   
    57   54   59 1   
    58   55   56 2   
    59   55   60 1   
    60   60   61 1   
    61   60   68 1   
    62   61   62 1   
    63   61   64 1   
    64   61   69 1   
    65   62   63 2   
    66   62   72 1   
    67   64   65 1   
    68   64   70 1   
    69   64   71 1   
    70   65   66 1   
    71   65   67 1   
    72   72   73 1   
    73   72   76 1   
    74   73   74 1   
    75   73   77 1   
    76   73   78 1   
    77   74   75 2   
    78   74   79 1   
    79   79   80 1   
    80   79   86 1   
    81   80   81 1   
    82   80   83 1   
    83   80   87 1   
    84   81   82 2   
    85   81   93 1   
    86   83   84 1   
    87   83   85 1   
    88   83   88 1   
    89   84   90 1   
    90   84   91 1   
    91   84   92 1   
    92   85   89 1   
    93   93   94 1   
    94   93  101 1   
    95   94   95 1   
    96   94   97 1   
    97   94  102 1   
    98   95   96 2   
    99   95  112 1   
   100   97   98 1   
   101   97   99 1   
   102   97  103 1   
   103   98  100 1   
   104   98  104 1   
   105   98  105 1   
   106   99  106 1   
   107   99  107 1   
   108   99  108 1   
   109  100  109 1   
   110  100  110 1   
   111  100  111 1   
   112  112  113 1   
   113  112  119 1   
   114  113  114 1   
   115  113  116 1   
   116  113  120 1   
   117  114  115 2   
   118  114  126 1   
   119  116  117 1   
   120  116  118 1   
   121  116  121 1   
   122  117  123 1   
   123  117  124 1   
   124  117  125 1   
   125  118  122 1   
   126  126  127 1   
   127  126  133 1   
   128  127  128 1   
   129  127  130 1   
   130  127  134 1   
   131  128  129 2   
   132  128  140 1   
   133  130  131 1   
   134  130  132 1   
   135  130  135 1   
   136  131  137 1   
   137  131  138 1   
   138  131  139 1   
   139  132  136 1   
   140  140  141 1   
   141  140  149 1   
   142  141  142 1   
   143  141  144 1   
   144  141  150 1   
   145  142  143 2   
   146  142  162 1   
   147  144  145 1   
   148  144  151 1   
   149  144  152 1   
   150  145  146 1   
   151  145  153 1   
   152  145  154 1   
   153  146  147 1   
   154  146  155 1   
   155  146  156 1   
   156  147  148 1   
   157  147  157 1   
   158  147  158 1   
   159  148  159 1   
   160  148  160 1   
   161  148  161 1   
   162  162  163 1   
   163  162  171 1   
   164  163  164 1   
   165  163  166 1   
   166  163  172 1   
   167  164  165 2   
   168  164  177 1   
   169  166  167 1   
   170  166  173 1   
   171  166  174 1   
   172  167  168 1   
   173  167  175 1   
   174  167  176 1   
   175  168  169 1   
   176  168  170 1   
   177  177  178 1   
   178  177  182 1   
   179  178  179 1   
   180  178  180 1   
   181  178  181 1   
   182  184  185 1   
   183  184  186 1   
   184  187  188 1   
   185  187  189 1   
   186  190  191 1   
   187  190  192 1   
   188  193  194 1   
   189  193  195 1   
@<TRIPOS>SUBSTRUCTURE
     1 MOL         1 TEMP              0 ****  ****    0 ROOT
