@<TRIPOS>MOLECULE
MOL
  192   187     1     0     0
SMALL
resp


@<TRIPOS>ATOM
      1 C1         -9.1010    0.9450   -2.0810 c3        1 MOL     -0.510513
      2 C2         -8.1220    0.8410   -0.9150 c         1 MOL      0.748493
      3 O1         -7.1800    1.6730   -0.7030 o         1 MOL     -0.648395
      4 H1         -9.4200    1.9810   -2.1960 hc        1 MOL      0.131414
      5 H2         -8.6130    0.6120   -2.9970 hc        1 MOL      0.131414
      6 H3         -9.9700    0.3170   -1.8840 hc        1 MOL      0.131414
      7 N1         -8.1070   -0.3010   -0.1930 n         1 MOL     -0.458933
      8 C3         -7.3460   -0.4810    1.0430 c3        1 MOL     -0.111904
      9 C4         -6.7750   -1.8730    1.1270 c         1 MOL      0.299397
     10 O2         -6.4310   -2.4240    2.1790 o         1 MOL     -0.419334
     11 C5         -8.0870   -0.0800    2.2660 c3        1 MOL     -0.106340
     12 C6         -9.4920   -0.6910    2.2780 c         1 MOL      0.722591
     13 O3         -9.6490   -1.8820    1.8370 o         1 MOL     -0.681008
     14 O4        -10.4260    0.0460    2.6730 o         1 MOL     -0.681008
     15 H4         -8.9180   -0.8940   -0.2720 hn        1 MOL      0.241234
     16 H5         -6.4480    0.1390    0.9380 h1        1 MOL      0.188753
     17 H6         -8.1300    1.0060    2.3550 hc        1 MOL      0.051482
     18 H7         -7.6220   -0.4410    3.1810 hc        1 MOL      0.051482
     19 N2         -6.4160   -2.4230   -0.0440 n         1 MOL     -0.060571
     20 C7         -5.9300   -3.7360   -0.2670 c3        1 MOL     -0.136172
     21 C8         -4.4560   -3.9550    0.0890 c         1 MOL      0.539191
     22 O5         -4.0280   -4.9400    0.6730 o         1 MOL     -0.567790
     23 C9         -6.1290   -4.1930   -1.7820 c3        1 MOL      0.105115
     24 C10        -7.6790   -4.2380   -1.9580 c3        1 MOL     -0.334631
     25 C11        -8.2080   -4.8860   -3.1920 c3        1 MOL      0.089111
     26 C12        -9.7080   -4.6020   -3.1110 c3        1 MOL     -0.016751
     27 N3        -10.3910   -5.0110   -4.3130 n4        1 MOL     -0.273499
     28 H8         -6.4620   -1.7920   -0.8330 hn        1 MOL      0.144154
     29 H9         -6.4660   -4.3920    0.4230 h1        1 MOL      0.118776
     30 H10        -5.7110   -5.1590   -2.0750 hc        1 MOL      0.012954
     31 H11        -5.7430   -3.4300   -2.4620 hc        1 MOL      0.012954
     32 H12        -8.0930   -3.2470   -1.7510 hc        1 MOL      0.098300
     33 H13        -8.0690   -4.9290   -1.2080 hc        1 MOL      0.098300
     34 H14        -7.9810   -5.9490   -3.2740 hc        1 MOL      0.020922
     35 H15        -7.7280   -4.4260   -4.0540 hc        1 MOL      0.020922
     36 H16        -9.8860   -3.5410   -2.9340 hx        1 MOL      0.105544
     37 H17       -10.1260   -5.1480   -2.2630 hx        1 MOL      0.105544
     38 H18       -10.1930   -5.9760   -4.5520 hn        1 MOL      0.273113
     39 H19       -11.3900   -4.8810   -4.1860 hn        1 MOL      0.273113
     40 H20        -9.9990   -4.4980   -5.0940 hn        1 MOL      0.273113
     41 N4         -3.5580   -3.1290   -0.3290 n         1 MOL     -0.441217
     42 C13        -3.5210   -1.8090   -1.0200 c3        1 MOL      0.121065
     43 C14        -3.8600   -0.6130   -0.1280 c         1 MOL      0.230155
     44 O6         -3.7510   -0.6680    1.0910 o         1 MOL     -0.396021
     45 C15        -2.1520   -1.6340   -1.6540 c3        1 MOL     -0.253977
     46 C16        -0.9780   -1.9920   -0.6970 c         1 MOL      0.439218
     47 O7         -0.8260   -1.4620    0.4180 o         1 MOL     -0.574996
     48 O8         -0.1440   -2.7920   -1.1810 o         1 MOL     -0.574996
     49 H21        -2.7120   -3.4610    0.0990 hn        1 MOL      0.365621
     50 H22        -4.3260   -1.7690   -1.7590 h1        1 MOL      0.073367
     51 H23        -2.1270   -0.6090   -2.0300 hc        1 MOL      0.086701
     52 H24        -2.1950   -2.3270   -2.4790 hc        1 MOL      0.086701
     53 N5         -4.2330    0.5630   -0.7560 n         1 MOL     -0.477719
     54 C17        -4.3600    1.7780    0.0130 c3        1 MOL      0.111521
     55 C18        -3.1050    2.2510    0.7680 c         1 MOL      0.199661
     56 O9         -2.0030    1.6770    0.6560 o         1 MOL     -0.244604
     57 H25        -4.2980    0.6670   -1.7570 hn        1 MOL      0.301346
     58 H26        -5.1280    1.6470    0.7630 h1        1 MOL      0.101531
     59 H27        -4.6810    2.6250   -0.5960 h1        1 MOL      0.101531
     60 N6         -3.2830    3.3240    1.5050 n         1 MOL     -0.548588
     61 C19        -2.2120    4.0770    2.1920 c3        1 MOL      0.437670
     62 C20        -2.6770    5.5310    2.3610 c         1 MOL      0.422912
     63 O10        -3.8550    5.7870    2.3230 o         1 MOL     -0.521244
     64 C21        -1.9590    3.5000    3.6190 c3        1 MOL     -0.267538
     65 C22        -0.5480    2.9460    3.9170 c         1 MOL      0.632001
     66 O11        -0.3240    2.6850    5.1300 o         1 MOL     -0.653655
     67 O12         0.1670    2.6310    2.9580 o         1 MOL     -0.653655
     68 H28        -4.1390    3.8440    1.4480 hn        1 MOL      0.301818
     69 H29        -1.2800    3.9760    1.6390 h1        1 MOL     -0.024983
     70 H30        -2.5810    2.6050    3.6540 hc        1 MOL      0.065043
     71 H31        -2.3830    4.1480    4.3810 hc        1 MOL      0.065043
     72 N7         -1.7960    6.5270    2.6250 n         1 MOL     -0.407820
     73 C23        -0.3870    6.5770    2.6820 c3        1 MOL     -0.043576
     74 C24         0.3830    6.3660    1.3830 c         1 MOL      0.467620
     75 O13        -0.1040    6.7920    0.3260 o         1 MOL     -0.515784
     76 H32        -2.2240    7.4330    2.6920 hn        1 MOL      0.303375
     77 H33        -0.0060    5.9750    3.5040 h1        1 MOL      0.071579
     78 H34        -0.1390    7.5420    3.1080 h1        1 MOL      0.071579
     79 N8          1.3690    5.5010    1.4040 n         1 MOL     -0.421188
     80 C25         2.0380    4.9610    0.2040 c3        1 MOL     -0.071852
     81 C26         1.1940    3.9360   -0.4640 c         1 MOL      0.733399
     82 O14         0.7030    3.0520    0.1300 o         1 MOL     -0.569495
     83 C27         3.5630    4.6710    0.4450 c3        1 MOL      0.200646
     84 C28         4.2250    3.9960   -0.7270 c3        1 MOL     -0.056490
     85 O15         3.7590    3.8070    1.4900 oh        1 MOL     -0.604582
     86 H35         1.5620    5.0570    2.2930 hn        1 MOL      0.255508
     87 H36         2.0000    5.7490   -0.5480 h1        1 MOL      0.066569
     88 H37         4.0070    5.6420    0.6140 h1        1 MOL      0.044249
     89 H38         3.6710    4.3790    2.2600 ho        1 MOL      0.433065
     90 H39         3.8450    2.9840   -0.9010 hc        1 MOL      0.025641
     91 H40         4.1290    4.5210   -1.6690 hc        1 MOL      0.025641
     92 H41         5.3060    3.9950   -0.5500 hc        1 MOL      0.025641
     93 N9          1.0540    3.9590   -1.7900 n         1 MOL     -0.598002
     94 C29         0.3840    2.8320   -2.5760 c3        1 MOL      0.000884
     95 C30         0.9960    1.4170   -2.3240 c         1 MOL      0.436954
     96 O16         0.5640    0.7740   -1.3680 o         1 MOL     -0.556305
     97 C31        -1.1820    2.7910   -2.4690 c3        1 MOL      0.563810
     98 C32        -1.8270    4.2340   -2.6280 c3        1 MOL     -0.106977
     99 C33        -1.8350    1.8680   -3.5520 c3        1 MOL     -0.575908
    100 C34        -1.5470    4.9740   -4.0060 c3        1 MOL     -0.121662
    101 H42         1.2480    4.7780   -2.3560 hn        1 MOL      0.294925
    102 H43         0.5160    3.1060   -3.6180 h1        1 MOL      0.041231
    103 H44        -1.4410    2.3950   -1.4920 hc        1 MOL     -0.193197
    104 H45        -1.5860    4.9220   -1.8110 hc        1 MOL      0.045090
    105 H46        -2.8960    3.9950   -2.6040 hc        1 MOL      0.045090
    106 H47        -1.3290    0.9100   -3.5530 hc        1 MOL      0.133754
    107 H48        -2.7900    1.5600   -3.1230 hc        1 MOL      0.133754
    108 H49        -1.8570    2.4180   -4.4990 hc        1 MOL      0.133754
    109 H50        -1.8030    6.0270   -3.9660 hc        1 MOL      0.024575
    110 H51        -0.5390    4.8040   -4.3950 hc        1 MOL      0.024575
    111 H52        -2.0970    4.4160   -4.7690 hc        1 MOL      0.024575
    112 N10         1.9540    0.9550   -3.0920 n         1 MOL     -0.341905
    113 C35         2.4670   -0.4600   -2.9440 c3        1 MOL     -0.163197
    114 C36         3.9950   -0.5770   -3.1110 c         1 MOL      0.593671
    115 O17         4.4520   -1.6650   -3.4560 o         1 MOL     -0.548826
    116 C37         1.6970   -1.3170   -3.9800 c3        1 MOL      0.403568
    117 C38         1.5520   -0.6610   -5.3690 c3        1 MOL     -0.321546
    118 O18         0.3820   -1.3830   -3.5250 oh        1 MOL     -0.581072
    119 H53         2.3040    1.5150   -3.8500 hn        1 MOL      0.253919
    120 H54         2.2070   -0.8340   -1.9580 h1        1 MOL      0.149132
    121 H55         2.0950   -2.3270   -4.0310 h1        1 MOL      0.011669
    122 H56         0.2820   -1.9300   -2.7450 ho        1 MOL      0.343441
    123 H57         1.1860   -1.3800   -6.1040 hc        1 MOL      0.079117
    124 H58         0.8120    0.1420   -5.2790 hc        1 MOL      0.079117
    125 H59         2.5020   -0.2880   -5.7390 hc        1 MOL      0.079117
    126 N11         4.7780    0.5270   -2.8910 n         1 MOL     -0.359494
    127 C39         6.2670    0.5440   -2.8020 c3        1 MOL     -0.001222
    128 C40         6.7390    0.0400   -1.4230 c         1 MOL      0.437826
    129 O19         6.9750    0.7380   -0.4580 o         1 MOL     -0.486800
    130 C41         6.8310    1.9250   -3.1490 c3        1 MOL      0.375509
    131 C42         8.3970    2.0170   -3.0230 c3        1 MOL     -0.343732
    132 O20         6.4940    2.2700   -4.4760 oh        1 MOL     -0.612794
    133 H60         4.3310    1.4100   -2.7020 hn        1 MOL      0.219654
    134 H61         6.5860   -0.0980   -3.6170 h1        1 MOL      0.098048
    135 H62         6.3560    2.6520   -2.4980 h1        1 MOL     -0.032947
    136 H63         6.7750    3.1920   -4.4970 ho        1 MOL      0.386801
    137 H64         8.9380    1.3170   -3.6600 hc        1 MOL      0.092843
    138 H65         8.7090    2.9820   -3.4330 hc        1 MOL      0.092843
    139 H66         8.7360    2.0900   -1.9900 hc        1 MOL      0.092843
    140 N12         6.7120   -1.2620   -1.3540 n         1 MOL     -0.671483
    141 C43         6.7510   -2.0020   -0.0450 c3        1 MOL      0.326017
    142 C44         5.4030   -1.8540    0.7830 c         1 MOL      0.558676
    143 O21         4.8570   -0.7860    0.9120 o         1 MOL     -0.478501
    144 C45         8.1040   -1.9590    0.6680 c3        1 MOL     -0.191923
    145 C46         9.2480   -2.2230   -0.3720 c3        1 MOL     -0.082834
    146 C47        10.6340   -2.5360    0.2670 c3        1 MOL      0.162191
    147 C48        11.7740   -2.6330   -0.7530 c3        1 MOL      0.062603
    148 N13        13.0510   -3.0980   -0.2110 n4        1 MOL     -0.250380
    149 H67         6.3670   -1.7220   -2.1830 hn        1 MOL      0.330708
    150 H68         6.7850   -3.0480   -0.3760 h1        1 MOL      0.015846
    151 H69         8.1650   -2.7090    1.4590 hc        1 MOL      0.089221
    152 H70         8.1450   -1.0000    1.1960 hc        1 MOL      0.089221
    153 H71         9.5520   -1.3700   -0.9830 hc        1 MOL      0.047433
    154 H72         8.9540   -3.0870   -0.9730 hc        1 MOL      0.047433
    155 H73        10.5470   -3.4880    0.7870 hc        1 MOL     -0.021991
    156 H74        10.9020   -1.7810    1.0150 hc        1 MOL     -0.021991
    157 H75        11.8790   -1.6380   -1.1820 hx        1 MOL      0.041615
    158 H76        11.5040   -3.2850   -1.5940 hx        1 MOL      0.041615
    159 H77        13.0070   -4.0850   -0.0280 hn        1 MOL      0.241597
    160 H78        13.7110   -2.9940   -0.9700 hn        1 MOL      0.241597
    161 H79        13.2710   -2.5800    0.6080 hn        1 MOL      0.241597
    162 N14         4.9590   -2.9490    1.4290 n         1 MOL     -0.692965
    163 C49         3.7520   -2.9840    2.2910 c3        1 MOL      0.466735
    164 C50         2.3950   -2.6660    1.5330 c         1 MOL      0.362890
    165 O22         1.7590   -1.6690    1.8350 o         1 MOL     -0.661495
    166 C51         3.7760   -4.2440    3.1520 c3        1 MOL     -0.032101
    167 C52         4.9660   -4.3700    4.1020 c3        1 MOL     -0.186996
    168 C53         4.7610   -5.6510    4.9710 c         1 MOL      0.702894
    169 O23         4.1010   -5.5870    6.0420 o         1 MOL     -0.634902
    170 O24         5.2700   -6.7060    4.5900 o         1 MOL     -0.634902
    171 H80         5.4870   -3.7850    1.2250 hn        1 MOL      0.310102
    172 H81         3.7380   -2.1250    2.9540 h1        1 MOL     -0.034931
    173 H82         3.6520   -5.1320    2.5440 hc        1 MOL      0.033549
    174 H83         2.8750   -4.1740    3.7620 hc        1 MOL      0.033549
    175 H84         5.0580   -3.4900    4.7410 hc        1 MOL      0.003900
    176 H85         5.8900   -4.5640    3.5620 hc        1 MOL      0.003900
    177 N15         2.0100   -3.4150    0.5230 n         1 MOL     -0.278683
    178 C54         2.5020   -4.6400    0.0160 c3        1 MOL     -0.038504
    179 H86         2.8560   -5.2570    0.8410 h1        1 MOL      0.035454
    180 H87         1.7030   -5.1620   -0.5110 h1        1 MOL      0.035454
    181 H88         3.3260   -4.4450   -0.6700 h1        1 MOL      0.035454
    182 H89         1.1210   -3.1120    0.1440 hn        1 MOL      0.342764
    183 Ca1         0.3620    0.5000    1.3950 Ca        1 MOL      1.788259
    184 O25         3.1250    1.0820    1.0900 oh        1 MOL     -0.848676
    185 H90         3.8480    0.5020    0.8400 ho        1 MOL      0.416074
    186 H91         3.5460    1.9160    1.2910 ho        1 MOL      0.416074
    187 O26        -1.5480   -0.2160    3.0760 oh        1 MOL     -0.848676
    188 H92        -2.1720   -0.6530    2.5030 ho        1 MOL      0.416074
    189 H93        -2.0910    0.3570    3.6240 ho        1 MOL      0.416074
    190 O27         1.8990    0.3300    3.7640 oh        1 MOL     -0.848676
    191 H94         2.7650   -0.0610    3.6230 ho        1 MOL      0.416074
    192 H95         1.5000   -0.2280    4.4270 ho        1 MOL      0.416074
@<TRIPOS>BOND
     1    1    2 1   
     2    1    4 1   
     3    1    5 1   
     4    1    6 1   
     5    2    3 2   
     6    2    7 1   
     7    7    8 1   
     8    7   15 1   
     9    8    9 1   
    10    8   11 1   
    11    8   16 1   
    12    9   10 2   
    13    9   19 1   
    14   11   12 1   
    15   11   17 1   
    16   11   18 1   
    17   12   13 1   
    18   12   14 1   
    19   19   20 1   
    20   19   28 1   
    21   20   21 1   
    22   20   23 1   
    23   20   29 1   
    24   21   22 2   
    25   21   41 1   
    26   23   24 1   
    27   23   30 1   
    28   23   31 1   
    29   24   25 1   
    30   24   32 1   
    31   24   33 1   
    32   25   26 1   
    33   25   34 1   
    34   25   35 1   
    35   26   27 1   
    36   26   36 1   
    37   26   37 1   
    38   27   38 1   
    39   27   39 1   
    40   27   40 1   
    41   41   42 1   
    42   41   49 1   
    43   42   43 1   
    44   42   45 1   
    45   42   50 1   
    46   43   44 2   
    47   43   53 1   
    48   45   46 1   
    49   45   51 1   
    50   45   52 1   
    51   46   47 1   
    52   46   48 1   
    53   53   54 1   
    54   53   57 1   
    55   54   55 1   
    56   54   58 1   
    57   54   59 1   
    58   55   56 2   
    59   55   60 1   
    60   60   61 1   
    61   60   68 1   
    62   61   62 1   
    63   61   64 1   
    64   61   69 1   
    65   62   63 2   
    66   62   72 1   
    67   64   65 1   
    68   64   70 1   
    69   64   71 1   
    70   65   66 1   
    71   65   67 1   
    72   72   73 1   
    73   72   76 1   
    74   73   74 1   
    75   73   77 1   
    76   73   78 1   
    77   74   75 2   
    78   74   79 1   
    79   79   80 1   
    80   79   86 1   
    81   80   81 1   
    82   80   83 1   
    83   80   87 1   
    84   81   82 2   
    85   81   93 1   
    86   83   84 1   
    87   83   85 1   
    88   83   88 1   
    89   84   90 1   
    90   84   91 1   
    91   84   92 1   
    92   85   89 1   
    93   93   94 1   
    94   93  101 1   
    95   94   95 1   
    96   94   97 1   
    97   94  102 1   
    98   95   96 2   
    99   95  112 1   
   100   97   98 1   
   101   97   99 1   
   102   97  103 1   
   103   98  100 1   
   104   98  104 1   
   105   98  105 1   
   106   99  106 1   
   107   99  107 1   
   108   99  108 1   
   109  100  109 1   
   110  100  110 1   
   111  100  111 1   
   112  112  113 1   
   113  112  119 1   
   114  113  114 1   
   115  113  116 1   
   116  113  120 1   
   117  114  115 2   
   118  114  126 1   
   119  116  117 1   
   120  116  118 1   
   121  116  121 1   
   122  117  123 1   
   123  117  124 1   
   124  117  125 1   
   125  118  122 1   
   126  126  127 1   
   127  126  133 1   
   128  127  128 1   
   129  127  130 1   
   130  127  134 1   
   131  128  129 2   
   132  128  140 1   
   133  130  131 1   
   134  130  132 1   
   135  130  135 1   
   136  131  137 1   
   137  131  138 1   
   138  131  139 1   
   139  132  136 1   
   140  140  141 1   
   141  140  149 1   
   142  141  142 1   
   143  141  144 1   
   144  141  150 1   
   145  142  143 2   
   146  142  162 1   
   147  144  145 1   
   148  144  151 1   
   149  144  152 1   
   150  145  146 1   
   151  145  153 1   
   152  145  154 1   
   153  146  147 1   
   154  146  155 1   
   155  146  156 1   
   156  147  148 1   
   157  147  157 1   
   158  147  158 1   
   159  148  159 1   
   160  148  160 1   
   161  148  161 1   
   162  162  163 1   
   163  162  171 1   
   164  163  164 1   
   165  163  166 1   
   166  163  172 1   
   167  164  165 2   
   168  164  177 1   
   169  166  167 1   
   170  166  173 1   
   171  166  174 1   
   172  167  168 1   
   173  167  175 1   
   174  167  176 1   
   175  168  169 1   
   176  168  170 1   
   177  177  178 1   
   178  177  182 1   
   179  178  179 1   
   180  178  180 1   
   181  178  181 1   
   182  184  185 1   
   183  184  186 1   
   184  187  188 1   
   185  187  189 1   
   186  190  191 1   
   187  190  192 1   
@<TRIPOS>SUBSTRUCTURE
     1 MOL         1 TEMP              0 ****  ****    0 ROOT
