@<TRIPOS>MOLECULE
MOL
  181   177     1     0     0
SMALL
resp


@<TRIPOS>ATOM
      1 C1         -5.2240    6.6820    3.7030 c3        1 MOL     -0.259403
      2 C2         -4.7610    5.2290    3.4380 c         1 MOL      0.638395
      3 O1         -3.8200    4.7610    4.0280 o         1 MOL     -0.571238
      4 H1         -6.3070    6.7430    3.5920 hc        1 MOL      0.067683
      5 H2         -4.9460    6.9740    4.7150 hc        1 MOL      0.067683
      6 H3         -4.7480    7.3510    2.9870 hc        1 MOL      0.067683
      7 N1         -5.4560    4.4080    2.6150 n         1 MOL     -0.435661
      8 C3         -6.6960    4.6120    1.8890 c3        1 MOL      0.004311
      9 C4         -6.7480    4.2250    0.4110 c         1 MOL      0.452232
     10 O2         -6.1900    3.1810   -0.0110 o         1 MOL     -0.501349
     11 C5         -7.8240    3.9660    2.7300 c3        1 MOL     -0.197383
     12 C6         -7.6690    2.4750    3.0950 c         1 MOL      0.753303
     13 O3         -8.4760    2.0820    3.8990 o         1 MOL     -0.678038
     14 O4         -6.6530    1.8240    2.6610 o         1 MOL     -0.678038
     15 H4         -5.0220    3.4980    2.5930 hn        1 MOL      0.260982
     16 H5         -6.9280    5.6820    1.9050 h1        1 MOL      0.031798
     17 H6         -8.7790    4.0060    2.2020 hc        1 MOL      0.048156
     18 H7         -7.8290    4.5710    3.6280 hc        1 MOL      0.048156
     19 N2         -7.4730    5.1280   -0.3270 n         1 MOL     -0.487084
     20 C7         -7.7760    5.0490   -1.7480 c3        1 MOL      0.339852
     21 C8         -8.3720    3.7390   -2.2470 c         1 MOL      0.409482
     22 O5         -9.4050    3.7370   -2.8420 o         1 MOL     -0.590488
     23 C9         -6.4350    5.2720   -2.5080 c3        1 MOL     -0.591784
     24 H8         -8.0040    5.7690    0.2450 hn        1 MOL      0.298975
     25 H9         -8.5350    5.8070   -1.9370 h1        1 MOL      0.011286
     26 H10        -5.6350    4.6660   -2.0850 hc        1 MOL      0.168204
     27 H11        -6.6000    5.0330   -3.5610 hc        1 MOL      0.168204
     28 H12        -6.1430    6.3120   -2.3710 hc        1 MOL      0.168204
     29 N3         -7.6470    2.6470   -2.1420 n         1 MOL     -0.150035
     30 C10        -8.2240    1.3900   -2.6190 c3        1 MOL      0.111397
     31 C11        -8.6550    0.4710   -1.4810 c         1 MOL      0.513392
     32 O6         -7.9630    0.4420   -0.4300 o         1 MOL     -0.556132
     33 C12        -7.2130    0.6740   -3.4980 c3        1 MOL     -0.280381
     34 C13        -5.8390    0.4180   -2.9210 c         1 MOL      0.783959
     35 O7         -5.5330    0.6860   -1.7650 o         1 MOL     -0.703782
     36 O8         -4.9650   -0.0100   -3.6990 o         1 MOL     -0.703782
     37 H13        -6.7770    2.6710   -1.6310 hn        1 MOL      0.100559
     38 H14        -9.1070    1.4920   -3.2450 h1        1 MOL      0.054489
     39 H15        -6.9600    1.3750   -4.2930 hc        1 MOL      0.060280
     40 H16        -7.7230   -0.0970   -4.0760 hc        1 MOL      0.060280
     41 N4         -9.6350   -0.4430   -1.7250 n         1 MOL     -0.528200
     42 C14       -10.0120   -1.5260   -0.7850 c3        1 MOL     -0.005185
     43 C15        -8.9060   -2.6160   -0.7330 c         1 MOL      0.318594
     44 O9         -8.8780   -3.4280    0.1990 o         1 MOL     -0.541047
     45 H17       -10.0430   -0.5160   -2.6490 hn        1 MOL      0.309486
     46 H18       -10.9590   -1.8910   -1.1710 h1        1 MOL      0.103660
     47 H19       -10.1970   -1.2350    0.2510 h1        1 MOL      0.103660
     48 N5         -7.9860   -2.6720   -1.7050 n         1 MOL     -0.134525
     49 C16        -6.9250   -3.6600   -1.7020 c3        1 MOL      0.070900
     50 C17        -5.7490   -3.1140   -0.8430 c         1 MOL      0.355056
     51 O10        -5.6580   -1.9180   -0.4220 o         1 MOL     -0.502480
     52 C18        -6.5730   -3.7760   -3.1870 c3        1 MOL     -0.155511
     53 C19        -5.5300   -4.9050   -3.3360 c         1 MOL      0.655716
     54 N6         -4.5530   -4.7350   -4.1400 n         1 MOL     -0.798932
     55 O11        -5.5900   -5.8160   -2.6090 o         1 MOL     -0.540847
     56 H20        -8.1730   -2.1380   -2.5370 hn        1 MOL      0.192679
     57 H21        -7.3230   -4.6320   -1.4140 h1        1 MOL      0.077899
     58 H22        -6.2020   -2.8000   -3.5180 hc        1 MOL      0.024397
     59 H23        -7.4800   -3.9610   -3.7600 hc        1 MOL      0.024397
     60 H24        -4.4280   -3.8110   -4.5450 hn        1 MOL      0.394842
     61 H25        -3.9690   -5.5290   -4.3440 hn        1 MOL      0.394842
     62 N7         -4.7460   -3.9600   -0.5650 n         1 MOL     -0.253225
     63 C20        -3.5060   -3.6830    0.2170 c3        1 MOL      0.085284
     64 C21        -2.4470   -4.7110   -0.1830 c         1 MOL      0.620356
     65 O12        -2.6300   -5.2490   -1.2860 o         1 MOL     -0.550908
     66 H26        -4.9090   -4.8660   -0.9790 hn        1 MOL      0.218114
     67 H27        -3.6060   -3.7970    1.2950 h1        1 MOL      0.001898
     68 H28        -3.1290   -2.6990   -0.0480 h1        1 MOL      0.001898
     69 N8         -1.3520   -4.9880    0.5820 n         1 MOL     -0.533237
     70 C22        -0.8560   -4.2330    1.7670 c3        1 MOL     -0.072816
     71 C23         0.5860   -3.7180    1.4530 c         1 MOL      0.563571
     72 O13         1.5150   -4.5650    1.3390 o         1 MOL     -0.482012
     73 C24        -1.1110   -4.9760    3.1130 c3        1 MOL      0.398614
     74 C25        -2.5550   -4.8830    3.6940 c3        1 MOL     -0.501252
     75 O14        -0.7600   -6.2680    2.9720 oh        1 MOL     -0.585985
     76 H29        -0.7980   -5.7910    0.3150 hn        1 MOL      0.353968
     77 H30        -1.4590   -3.3300    1.8780 h1        1 MOL      0.009419
     78 H31        -0.4340   -4.5600    3.8540 h1        1 MOL      0.013278
     79 H32        -0.6130   -6.5950    3.8640 ho        1 MOL      0.402941
     80 H33        -2.9250   -3.8550    3.7490 hc        1 MOL      0.127136
     81 H34        -3.3070   -5.3500    3.0590 hc        1 MOL      0.127136
     82 H35        -2.4920   -5.3440    4.6770 hc        1 MOL      0.127136
     83 N9          0.7360   -2.4030    1.2620 n         1 MOL     -0.415109
     84 C26         2.0230   -1.7510    0.8970 c3        1 MOL     -0.100517
     85 C27         2.8910   -1.3050    2.0480 c         1 MOL      0.672107
     86 O15         2.3940   -0.8780    3.0840 o         1 MOL     -0.627663
     87 C28         1.8490   -0.6080   -0.0700 c3        1 MOL      0.004150
     88 C29         0.9280    0.4560    0.4090 c3        1 MOL      0.121846
     89 C30         1.5500   -1.1640   -1.4400 c3        1 MOL     -0.172348
     90 C31         0.9570    1.7850   -0.2780 c3        1 MOL     -0.125006
     91 H36        -0.0330   -1.8180    1.5590 hn        1 MOL      0.212785
     92 H37         2.6010   -2.5720    0.4790 h1        1 MOL      0.157022
     93 H38         2.7570   -0.0250   -0.1930 hc        1 MOL      0.010421
     94 H39         1.2100    0.7070    1.4290 hc        1 MOL     -0.029968
     95 H40        -0.1040    0.1010    0.4620 hc        1 MOL     -0.029968
     96 H41         0.6340   -1.7570   -1.4690 hc        1 MOL      0.044609
     97 H42         1.4160   -0.3260   -2.1130 hc        1 MOL      0.044609
     98 H43         2.4020   -1.7260   -1.8260 hc        1 MOL      0.044609
     99 H44         0.7690    1.7650   -1.3520 hc        1 MOL      0.020253
    100 H45         0.1460    2.4180    0.0950 hc        1 MOL      0.020253
    101 H46         1.9660    2.1650   -0.1280 hc        1 MOL      0.020253
    102 N10         4.2110   -1.3640    2.0390 n         1 MOL     -0.639227
    103 C32         5.0850   -1.8890    0.9600 c3        1 MOL      0.847051
    104 C33         6.4780   -1.1050    0.8880 c         1 MOL      0.226703
    105 O16         6.7430   -0.3670    1.8610 o         1 MOL     -0.530176
    106 C34         5.2450   -3.4140    0.9660 c3        1 MOL     -0.287941
    107 C35         5.5780   -3.9900    2.3820 c         1 MOL      0.715531
    108 O17         5.6160   -5.2540    2.4220 o         1 MOL     -0.726395
    109 O18         5.8010   -3.3130    3.3670 o         1 MOL     -0.726395
    110 H47         4.7730   -1.0030    2.7860 hn        1 MOL      0.330065
    111 H48         4.6400   -1.5840    0.0130 h1        1 MOL     -0.228369
    112 H49         5.9950   -3.5940    0.2010 hc        1 MOL     -0.006483
    113 H50         4.3170   -3.8980    0.6750 hc        1 MOL     -0.006483
    114 N11         7.2410   -1.3200   -0.1680 n         1 MOL     -0.442414
    115 C36         8.6600   -0.8660   -0.2280 c3        1 MOL      0.560944
    116 C37         8.9130   -0.3390   -1.6900 c         1 MOL     -0.072100
    117 O19         8.5530   -1.1140   -2.5980 o         1 MOL     -0.444429
    118 C38         9.5970   -2.0180    0.1330 c3        1 MOL     -0.168247
    119 C39        11.0690   -1.6520    0.1550 ca        1 MOL      0.079588
    120 C40        11.8730   -1.9430   -0.8780 ca        1 MOL     -0.131513
    121 C41        11.5970   -0.8530    1.2730 ca        1 MOL     -0.131513
    122 C42        13.2250   -1.5960   -0.9610 ca        1 MOL     -0.170959
    123 C43        12.9760   -0.4800    1.2280 ca        1 MOL     -0.170959
    124 C44        13.7850   -0.9200    0.1270 ca        1 MOL     -0.081377
    125 H51         6.9280   -1.8190   -0.9810 hn        1 MOL      0.321702
    126 H52         8.9610   -0.0720    0.4530 h1        1 MOL     -0.040250
    127 H53         9.4660   -2.8730   -0.5320 hc        1 MOL      0.050392
    128 H54         9.1960   -2.4370    1.0570 hc        1 MOL      0.050392
    129 H55        11.3420   -2.5700   -1.5850 ha        1 MOL      0.126507
    130 H56        10.9470   -0.6210    2.1010 ha        1 MOL      0.126507
    131 H57        13.8750   -1.8290   -1.7890 ha        1 MOL      0.118033
    132 H58        13.2840    0.2860    1.9250 ha        1 MOL      0.118033
    133 H59        14.8160   -0.6070    0.0570 ha        1 MOL      0.081541
    134 N12         9.5350    0.8370   -1.9700 n         1 MOL      0.193654
    135 C45        10.0380    1.8550   -1.1100 c3        1 MOL      0.037013
    136 C46         8.9770    2.7050   -0.4240 c         1 MOL      0.326376
    137 O20         9.3220    3.3250    0.6230 o         1 MOL     -0.573493
    138 C47        10.9040    2.7850   -1.9170 c3        1 MOL     -0.151990
    139 C48        10.2940    2.7370   -3.2940 c3        1 MOL     -0.095552
    140 C49         9.7280    1.2960   -3.3080 c3        1 MOL     -0.087853
    141 H60        10.6790    1.4150   -0.3450 h1        1 MOL      0.040037
    142 H61        10.7830    3.7870   -1.5110 hc        1 MOL      0.063814
    143 H62        11.9540    2.4960   -1.8850 hc        1 MOL      0.063814
    144 H63         9.4170    3.3760   -3.3320 hc        1 MOL      0.049595
    145 H64        11.0300    2.8550   -4.0960 hc        1 MOL      0.049595
    146 H65         8.7940    1.1740   -3.8540 h1        1 MOL      0.052781
    147 H66        10.5430    0.7590   -3.8070 h1        1 MOL      0.052781
    148 N13         7.8180    2.9230   -0.9930 n         1 MOL     -0.064573
    149 C50         6.7110    3.6610   -0.3870 c3        1 MOL      0.067826
    150 C51         6.9920    5.2050   -0.0830 c         1 MOL      0.499452
    151 O21         6.8530    6.0650   -0.9850 o         1 MOL     -0.587271
    152 C52         5.3500    3.5830   -1.0640 c3        1 MOL     -0.181606
    153 C53         4.8110    2.1810   -1.3390 c3        1 MOL      0.161171
    154 C54         5.5830    1.2920   -2.3100 c         1 MOL      0.538673
    155 O22         5.2630    0.0560   -2.4690 o         1 MOL     -0.613153
    156 O23         6.4700    1.8060   -2.9800 o         1 MOL     -0.613153
    157 H67         7.5790    2.3400   -1.7810 hn        1 MOL      0.132188
    158 H68         6.5700    3.1580    0.5780 h1        1 MOL      0.062717
    159 H69         5.2710    4.1960   -1.9500 hc        1 MOL      0.035417
    160 H70         4.6940    4.0650   -0.3390 hc        1 MOL      0.035417
    161 H71         3.8140    2.3480   -1.7250 hc        1 MOL     -0.020099
    162 H72         4.6870    1.6580   -0.3870 hc        1 MOL     -0.020099
    163 N14         7.4220    5.6960    1.1170 n         1 MOL     -0.401047
    164 C55         7.6230    4.9710    2.4350 c3        1 MOL     -0.061624
    165 H73         8.4530    5.4250    2.9770 h1        1 MOL      0.061365
    166 H74         6.7150    5.0460    3.0340 h1        1 MOL      0.061365
    167 H75         7.8470    3.9220    2.2430 h1        1 MOL      0.061365
    168 H76         7.7610    6.6360    1.0030 hn        1 MOL      0.270963
    169 Ca1        -5.6480    0.4430    0.7250 Ca        1 MOL      1.712606
    170 O24        -7.5190   -0.9620    2.1650 oh        1 MOL     -0.853545
    171 H77        -7.3340   -1.8970    2.2780 ho        1 MOL      0.430066
    172 H78        -8.4620   -0.8950    2.2490 ho        1 MOL      0.430066
    173 O25        -4.2640   -0.7290    2.7840 oh        1 MOL     -0.853545
    174 H79        -3.3860   -0.4800    2.5040 ho        1 MOL      0.430066
    175 H80        -4.1540   -1.0270    3.6810 ho        1 MOL      0.430066
    176 O26        -3.1710   -0.2410   -0.0560 oh        1 MOL     -0.853545
    177 H81        -3.0760   -0.5490   -0.9520 ho        1 MOL      0.430066
    178 H82        -2.3230   -0.4210    0.3620 ho        1 MOL      0.430066
    179 O27        -3.6490    2.2360    1.6480 oh        1 MOL     -0.853545
    180 H83        -3.5630    2.9960    1.0640 ho        1 MOL      0.430066
    181 H84        -2.8300    2.2150    2.1350 ho        1 MOL      0.430066
@<TRIPOS>BOND
     1    1    2 1   
     2    1    4 1   
     3    1    5 1   
     4    1    6 1   
     5    2    3 2   
     6    2    7 1   
     7    7    8 1   
     8    7   15 1   
     9    8    9 1   
    10    8   11 1   
    11    8   16 1   
    12    9   10 2   
    13    9   19 1   
    14   11   12 1   
    15   11   17 1   
    16   11   18 1   
    17   12   13 1   
    18   12   14 1   
    19   19   20 1   
    20   19   24 1   
    21   20   21 1   
    22   20   23 1   
    23   20   25 1   
    24   21   22 2   
    25   21   29 1   
    26   23   26 1   
    27   23   27 1   
    28   23   28 1   
    29   29   30 1   
    30   29   37 1   
    31   30   31 1   
    32   30   33 1   
    33   30   38 1   
    34   31   32 2   
    35   31   41 1   
    36   33   34 1   
    37   33   39 1   
    38   33   40 1   
    39   34   35 1   
    40   34   36 1   
    41   41   42 1   
    42   41   45 1   
    43   42   43 1   
    44   42   46 1   
    45   42   47 1   
    46   43   44 2   
    47   43   48 1   
    48   48   49 1   
    49   48   56 1   
    50   49   50 1   
    51   49   52 1   
    52   49   57 1   
    53   50   51 2   
    54   50   62 1   
    55   52   53 1   
    56   52   58 1   
    57   52   59 1   
    58   53   54 1   
    59   53   55 2   
    60   54   60 1   
    61   54   61 1   
    62   62   63 1   
    63   62   66 1   
    64   63   64 1   
    65   63   67 1   
    66   63   68 1   
    67   64   65 2   
    68   64   69 1   
    69   69   70 1   
    70   69   76 1   
    71   70   71 1   
    72   70   73 1   
    73   70   77 1   
    74   71   72 2   
    75   71   83 1   
    76   73   74 1   
    77   73   75 1   
    78   73   78 1   
    79   74   80 1   
    80   74   81 1   
    81   74   82 1   
    82   75   79 1   
    83   83   84 1   
    84   83   91 1   
    85   84   85 1   
    86   84   87 1   
    87   84   92 1   
    88   85   86 2   
    89   85  102 1   
    90   87   88 1   
    91   87   89 1   
    92   87   93 1   
    93   88   90 1   
    94   88   94 1   
    95   88   95 1   
    96   89   96 1   
    97   89   97 1   
    98   89   98 1   
    99   90   99 1   
   100   90  100 1   
   101   90  101 1   
   102  102  103 1   
   103  102  110 1   
   104  103  104 1   
   105  103  106 1   
   106  103  111 1   
   107  104  105 2   
   108  104  114 1   
   109  106  107 1   
   110  106  112 1   
   111  106  113 1   
   112  107  108 1   
   113  107  109 1   
   114  114  115 1   
   115  114  125 1   
   116  115  116 1   
   117  115  118 1   
   118  115  126 1   
   119  116  117 2   
   120  116  134 1   
   121  118  119 1   
   122  118  127 1   
   123  118  128 1   
   124  119  120 ar  
   125  119  121 ar  
   126  120  122 ar  
   127  120  129 1   
   128  121  123 ar  
   129  121  130 1   
   130  122  124 ar  
   131  122  131 1   
   132  123  124 ar  
   133  123  132 1   
   134  124  133 1   
   135  134  135 1   
   136  134  140 1   
   137  135  136 1   
   138  135  138 1   
   139  135  141 1   
   140  136  137 2   
   141  136  148 1   
   142  138  139 1   
   143  138  142 1   
   144  138  143 1   
   145  139  140 1   
   146  139  144 1   
   147  139  145 1   
   148  140  146 1   
   149  140  147 1   
   150  148  149 1   
   151  148  157 1   
   152  149  150 1   
   153  149  152 1   
   154  149  158 1   
   155  150  151 2   
   156  150  163 1   
   157  152  153 1   
   158  152  159 1   
   159  152  160 1   
   160  153  154 1   
   161  153  161 1   
   162  153  162 1   
   163  154  155 1   
   164  154  156 1   
   165  163  164 1   
   166  163  168 1   
   167  164  165 1   
   168  164  166 1   
   169  164  167 1   
   170  170  171 1   
   171  170  172 1   
   172  173  174 1   
   173  173  175 1   
   174  176  177 1   
   175  176  178 1   
   176  179  180 1   
   177  179  181 1   
@<TRIPOS>SUBSTRUCTURE
     1 MOL         1 TEMP              0 ****  ****    0 ROOT
