@<TRIPOS>MOLECULE
MOL
  181   177     1     0     0
SMALL
resp


@<TRIPOS>ATOM
      1 C1        -10.0290   -6.5810   -2.2430 c3        1 MOL     -0.380090
      2 C2         -8.9710   -5.9000   -1.2970 c         1 MOL      0.652826
      3 O1         -8.1740   -6.6290   -0.6630 o         1 MOL     -0.605494
      4 H1         -9.6600   -6.5660   -3.2690 hc        1 MOL      0.101951
      5 H2        -10.1870   -7.6130   -1.9290 hc        1 MOL      0.101951
      6 H3        -10.9710   -6.0360   -2.1880 hc        1 MOL      0.101951
      7 N1         -8.9340   -4.6410   -0.9740 n         1 MOL     -0.304053
      8 C3         -9.8060   -3.5460   -1.4120 c3        1 MOL     -0.151426
      9 C4        -10.0570   -2.4840   -0.3120 c         1 MOL      0.661622
     10 O2         -9.1520   -1.9740    0.3520 o         1 MOL     -0.584068
     11 C5         -9.1970   -2.9460   -2.7060 c3        1 MOL     -0.081345
     12 C6         -7.8680   -2.1940   -2.6580 c         1 MOL      0.635814
     13 O3         -7.6840   -1.3170   -3.5750 o         1 MOL     -0.662307
     14 O4         -6.9750   -2.3950   -1.7620 o         1 MOL     -0.662307
     15 H4         -8.3760   -4.4670   -0.1590 hn        1 MOL      0.192216
     16 H5        -10.7890   -3.8560   -1.7470 h1        1 MOL      0.051563
     17 H6         -9.8940   -2.2440   -3.1620 hc        1 MOL      0.036757
     18 H7         -9.0300   -3.8080   -3.3370 hc        1 MOL      0.036757
     19 N2        -11.2570   -1.9170   -0.2490 n         1 MOL     -0.545057
     20 C7        -11.9050   -1.0510    0.7610 c3        1 MOL      0.270376
     21 C8        -11.2240    0.3120    1.2160 c         1 MOL      0.390314
     22 O5        -11.8860    1.3170    0.9610 o         1 MOL     -0.551341
     23 C9        -12.2420   -1.9140    1.9940 c3        1 MOL     -0.539769
     24 H8        -11.8710   -2.2320   -0.9830 hn        1 MOL      0.300931
     25 H9        -12.8590   -0.7420    0.3380 h1        1 MOL      0.058443
     26 H10       -12.8780   -2.7360    1.6710 hc        1 MOL      0.140046
     27 H11       -11.3350   -2.3340    2.4350 hc        1 MOL      0.140046
     28 H12       -12.8870   -1.3610    2.6800 hc        1 MOL      0.140046
     29 N3         -9.9520    0.2870    1.6790 n         1 MOL     -0.011228
     30 C10        -9.1690    1.4720    2.0020 c3        1 MOL     -0.276327
     31 C11        -8.1700    1.7500    0.9110 c         1 MOL      0.641575
     32 O6         -7.6590    0.8810    0.1950 o         1 MOL     -0.547194
     33 C12        -8.5000    1.3270    3.3690 c3        1 MOL      0.036238
     34 C13        -7.5940    0.0990    3.6230 c         1 MOL      0.548037
     35 O7         -7.2340   -0.1020    4.8160 o         1 MOL     -0.650068
     36 O8         -7.3620   -0.7760    2.7260 o         1 MOL     -0.650068
     37 H13        -9.5520   -0.6120    1.9010 hn        1 MOL      0.126132
     38 H14        -9.7950    2.3630    1.9570 h1        1 MOL      0.094433
     39 H15        -9.2790    1.3920    4.1310 hc        1 MOL      0.013859
     40 H16        -7.8700    2.1990    3.5470 hc        1 MOL      0.013859
     41 N4         -7.9550    3.0420    0.6090 n         1 MOL     -0.451537
     42 C14        -7.1410    3.4470   -0.4120 c3        1 MOL     -0.154066
     43 C15        -5.5730    3.2590   -0.1830 c         1 MOL      0.710240
     44 O9         -5.0520    3.2910    0.9100 o         1 MOL     -0.574960
     45 H17        -8.0640    3.6360    1.4160 hn        1 MOL      0.300572
     46 H18        -7.2300    4.5120   -0.6400 h1        1 MOL      0.102374
     47 H19        -7.4130    2.9270   -1.3250 h1        1 MOL      0.102374
     48 N5         -4.9020    3.0970   -1.3240 n         1 MOL     -0.678596
     49 C16        -3.5970    2.4770   -1.2830 c3        1 MOL      0.359855
     50 C17        -2.5060    3.4950   -1.4640 c         1 MOL      0.664462
     51 O10        -2.7860    4.4600   -2.1510 o         1 MOL     -0.588292
     52 C18        -3.6170    1.3550   -2.3270 c3        1 MOL     -0.289835
     53 C19        -4.7300    0.3570   -2.2730 c         1 MOL      0.694206
     54 N6         -4.7260   -0.5800   -3.2100 n         1 MOL     -0.685229
     55 O11        -5.4240    0.1940   -1.2880 o         1 MOL     -0.596080
     56 H20        -5.3680    3.2470   -2.2070 hn        1 MOL      0.326641
     57 H21        -3.4360    2.0150   -0.3070 h1        1 MOL     -0.039273
     58 H22        -2.6310    0.8980   -2.3060 hc        1 MOL      0.065085
     59 H23        -3.7680    1.7840   -3.3230 hc        1 MOL      0.065085
     60 H24        -4.1240   -0.5400   -4.0200 hn        1 MOL      0.329614
     61 H25        -5.4870   -1.2350   -3.0930 hn        1 MOL      0.329614
     62 N7         -1.3340    3.2490   -0.9070 n         1 MOL     -0.710418
     63 C20        -0.2230    4.2300   -0.9130 c3        1 MOL      0.137690
     64 C21        -0.3180    5.3800    0.0830 c         1 MOL      0.555215
     65 O12        -1.3610    5.5270    0.7870 o         1 MOL     -0.527597
     66 H26        -1.2880    2.4120   -0.3570 hn        1 MOL      0.393832
     67 H27        -0.0650    4.7370   -1.8740 h1        1 MOL      0.116566
     68 H28         0.6750    3.6390   -0.7360 h1        1 MOL      0.116566
     69 N8          0.6520    6.2980    0.2650 n         1 MOL     -0.497224
     70 C22         1.5940    6.7170   -0.8100 c3        1 MOL     -0.164830
     71 C23         2.7250    5.7310   -0.9790 c         1 MOL      0.227729
     72 O13         3.0280    5.3430   -2.1240 o         1 MOL     -0.495081
     73 C24         2.1980    8.1200   -0.5030 c3        1 MOL      0.526361
     74 C25         1.1660    9.2570   -0.6330 c3        1 MOL     -0.407762
     75 O14         2.6940    8.1870    0.8200 oh        1 MOL     -0.667430
     76 H29         0.4850    7.0030    0.9770 hn        1 MOL      0.254436
     77 H30         1.0590    6.7140   -1.7570 h1        1 MOL      0.118868
     78 H31         2.9770    8.3940   -1.2050 h1        1 MOL      0.040805
     79 H32         1.9950    7.9260    1.4220 ho        1 MOL      0.425145
     80 H33         0.1460    8.9830   -0.3630 hc        1 MOL      0.090599
     81 H34         1.3580    9.9810    0.1600 hc        1 MOL      0.090599
     82 H35         1.1500    9.7250   -1.6220 hc        1 MOL      0.090599
     83 N9          3.2650    5.1050    0.0500 n         1 MOL     -0.131611
     84 C26         4.2760    4.0910   -0.0960 c3        1 MOL     -0.071357
     85 C27         4.1130    2.8640    0.7890 c         1 MOL      0.494382
     86 O15         3.8120    2.8980    1.9810 o         1 MOL     -0.545147
     87 C28         5.6900    4.7960    0.3170 c3        1 MOL      0.025087
     88 C29         6.8130    3.8600   -0.1590 c3        1 MOL      0.266190
     89 C30         5.7930    5.2220    1.8190 c3        1 MOL     -0.333528
     90 C31         8.1910    4.4880   -0.0800 c3        1 MOL     -0.419997
     91 H36         2.9660    5.3680    0.9820 hn        1 MOL      0.201644
     92 H37         4.2150    3.6880   -1.1100 h1        1 MOL      0.124037
     93 H38         5.8570    5.7290   -0.2180 hc        1 MOL      0.045476
     94 H39         6.5750    3.6340   -1.2010 hc        1 MOL     -0.023394
     95 H40         6.7870    2.9540    0.4460 hc        1 MOL     -0.023394
     96 H41         5.8510    4.3670    2.4860 hc        1 MOL      0.082332
     97 H42         6.7090    5.8110    1.8560 hc        1 MOL      0.082332
     98 H43         4.9300    5.8520    2.0590 hc        1 MOL      0.082332
     99 H44         8.8440    3.7920   -0.6070 hc        1 MOL      0.082209
    100 H45         8.1970    5.5050   -0.4800 hc        1 MOL      0.082209
    101 H46         8.5180    4.3710    0.9540 hc        1 MOL      0.082209
    102 N10         4.4330    1.6250    0.3840 n         1 MOL     -0.386685
    103 C32         4.8130    1.1080   -0.9680 c3        1 MOL      0.060164
    104 C33         6.1380    0.3970   -1.1670 c         1 MOL      0.528826
    105 O16         6.6150    0.3420   -2.3090 o         1 MOL     -0.574776
    106 C34         3.6330    0.3100   -1.5840 c3        1 MOL     -0.239305
    107 C35         2.3110    1.0930   -1.5630 c         1 MOL      0.767448
    108 O17         2.1170    1.9410   -2.4740 o         1 MOL     -0.723723
    109 O18         1.3770    0.7520   -0.8140 o         1 MOL     -0.723723
    110 H47         4.6480    1.0000    1.1570 hn        1 MOL      0.288425
    111 H48         5.0200    1.9900   -1.5590 h1        1 MOL      0.027053
    112 H49         3.6050   -0.6380   -1.0500 hc        1 MOL      0.054428
    113 H50         3.9280    0.0650   -2.6100 hc        1 MOL      0.054428
    114 N11         6.8390    0.1820   -0.1110 n         1 MOL     -0.269089
    115 C36         8.1660   -0.4360   -0.0810 c3        1 MOL      0.018992
    116 C37         8.5060   -1.0800    1.3740 c         1 MOL      0.386858
    117 O19         8.2210   -0.4570    2.3790 o         1 MOL     -0.495585
    118 C38         9.3030    0.4490   -0.4580 c3        1 MOL     -0.280051
    119 C39        10.6320   -0.1500   -0.5790 ca        1 MOL      0.169020
    120 C40        11.5200   -0.3220    0.5660 ca        1 MOL     -0.215860
    121 C41        11.0260   -0.6780   -1.8460 ca        1 MOL     -0.215860
    122 C42        12.8010   -0.8750    0.4030 ca        1 MOL     -0.087814
    123 C43        12.3040   -1.2810   -1.9670 ca        1 MOL     -0.087814
    124 C44        13.1710   -1.4750   -0.8580 ca        1 MOL     -0.171887
    125 H51         6.3700    0.3300    0.7600 hn        1 MOL      0.249616
    126 H52         8.2110   -1.2910   -0.7490 h1        1 MOL      0.077302
    127 H53         9.3480    1.2550    0.2600 hc        1 MOL      0.109742
    128 H54         9.0750    0.9570   -1.4050 hc        1 MOL      0.109742
    129 H55        11.0840   -0.0070    1.4990 ha        1 MOL      0.161676
    130 H56        10.3170   -0.7070   -2.6620 ha        1 MOL      0.161676
    131 H57        13.4430   -0.9370    1.2740 ha        1 MOL      0.104063
    132 H58        12.4980   -1.7270   -2.9340 ha        1 MOL      0.104063
    133 H59        14.0430   -2.1050   -0.9110 ha        1 MOL      0.120352
    134 N12         9.1020   -2.2610    1.5050 n         1 MOL     -0.065564
    135 C45         9.6350   -3.1670    0.4980 c3        1 MOL      0.170709
    136 C46         8.6390   -4.1480   -0.1380 c         1 MOL      0.331096
    137 O20         8.8350   -4.3690   -1.3560 o         1 MOL     -0.547204
    138 C47        10.7250   -4.0490    1.1010 c3        1 MOL     -0.230448
    139 C48        10.9990   -3.3430    2.3910 c3        1 MOL      0.004898
    140 C49         9.6790   -2.6350    2.7390 c3        1 MOL     -0.266594
    141 H60        10.0890   -2.6180   -0.3320 h1        1 MOL      0.050295
    142 H61        10.3350   -5.0360    1.3460 hc        1 MOL      0.080864
    143 H62        11.5880   -4.0780    0.4260 hc        1 MOL      0.080864
    144 H63        11.3990   -3.9680    3.1820 hc        1 MOL      0.027525
    145 H64        11.6490   -2.4980    2.1810 hc        1 MOL      0.027525
    146 H65         9.0650   -3.4120    3.1970 h1        1 MOL      0.121213
    147 H66         9.8500   -1.8430    3.4670 h1        1 MOL      0.121213
    148 N13         7.5820   -4.5860    0.5460 n         1 MOL     -0.242089
    149 C50         6.3340   -5.1480    0.0030 c3        1 MOL      0.192002
    150 C51         6.4090   -6.6950   -0.1220 c         1 MOL      0.349200
    151 O21         6.5280   -7.2910    0.9740 o         1 MOL     -0.549272
    152 C52         5.2130   -4.7420    1.0020 c3        1 MOL     -0.166122
    153 C53         4.8950   -3.2290    0.8720 c3        1 MOL     -0.181946
    154 C54         3.9040   -2.7210    1.9500 c         1 MOL      0.757986
    155 O22         2.7030   -2.6310    1.6390 o         1 MOL     -0.731387
    156 O23         4.3280   -2.4120    3.0940 o         1 MOL     -0.731387
    157 H67         7.6620   -4.4970    1.5490 hn        1 MOL      0.253247
    158 H68         6.1550   -4.6680   -0.9510 h1        1 MOL      0.089399
    159 H69         5.5170   -4.8610    2.0480 hc        1 MOL      0.060239
    160 H70         4.3190   -5.2950    0.6950 hc        1 MOL      0.060239
    161 H71         4.6500   -2.8700   -0.1390 hc        1 MOL     -0.011695
    162 H72         5.8370   -2.6930    0.9700 hc        1 MOL     -0.011695
    163 N14         6.3850   -7.3790   -1.2920 n         1 MOL     -0.329258
    164 C55         6.5460   -6.8480   -2.6920 c3        1 MOL     -0.116849
    165 H73         6.3140   -5.7840   -2.7050 h1        1 MOL      0.077253
    166 H74         7.5740   -7.0000   -3.0230 h1        1 MOL      0.077253
    167 H75         5.8670   -7.3760   -3.3620 h1        1 MOL      0.077253
    168 H76         6.1660   -8.3550   -1.1980 hn        1 MOL      0.268510
    169 Ca1        -6.2670   -1.5390    0.5770 Ca        1 MOL      1.674741
    170 O24        -3.7290   -1.8840   -0.4240 oh        1 MOL     -0.798627
    171 H77        -3.2060   -1.7870   -1.2100 ho        1 MOL      0.405782
    172 H78        -3.0980   -1.8700    0.2940 ho        1 MOL      0.405782
    173 O25        -4.4390    0.4760    1.7130 oh        1 MOL     -0.798627
    174 H79        -4.7510    1.3520    1.4980 ho        1 MOL      0.405782
    175 H80        -3.9440    0.5740    2.5200 ho        1 MOL      0.405782
    176 O26        -4.6580   -2.7560    2.2770 oh        1 MOL     -0.798627
    177 H81        -4.9750   -3.5860    2.6220 ho        1 MOL      0.405782
    178 H82        -3.7090   -2.8240    2.2960 ho        1 MOL      0.405782
    179 O27        -6.2350   -4.3270    0.4990 oh        1 MOL     -0.798627
    180 H83        -6.7780   -4.5340    1.2550 ho        1 MOL      0.405782
    181 H84        -5.5240   -4.9670    0.5150 ho        1 MOL      0.405782
@<TRIPOS>BOND
     1    1    2 1   
     2    1    4 1   
     3    1    5 1   
     4    1    6 1   
     5    2    3 2   
     6    2    7 1   
     7    7    8 1   
     8    7   15 1   
     9    8    9 1   
    10    8   11 1   
    11    8   16 1   
    12    9   10 2   
    13    9   19 1   
    14   11   12 1   
    15   11   17 1   
    16   11   18 1   
    17   12   13 1   
    18   12   14 1   
    19   19   20 1   
    20   19   24 1   
    21   20   21 1   
    22   20   23 1   
    23   20   25 1   
    24   21   22 2   
    25   21   29 1   
    26   23   26 1   
    27   23   27 1   
    28   23   28 1   
    29   29   30 1   
    30   29   37 1   
    31   30   31 1   
    32   30   33 1   
    33   30   38 1   
    34   31   32 2   
    35   31   41 1   
    36   33   34 1   
    37   33   39 1   
    38   33   40 1   
    39   34   35 1   
    40   34   36 1   
    41   41   42 1   
    42   41   45 1   
    43   42   43 1   
    44   42   46 1   
    45   42   47 1   
    46   43   44 2   
    47   43   48 1   
    48   48   49 1   
    49   48   56 1   
    50   49   50 1   
    51   49   52 1   
    52   49   57 1   
    53   50   51 2   
    54   50   62 1   
    55   52   53 1   
    56   52   58 1   
    57   52   59 1   
    58   53   54 1   
    59   53   55 2   
    60   54   60 1   
    61   54   61 1   
    62   62   63 1   
    63   62   66 1   
    64   63   64 1   
    65   63   67 1   
    66   63   68 1   
    67   64   65 2   
    68   64   69 1   
    69   69   70 1   
    70   69   76 1   
    71   70   71 1   
    72   70   73 1   
    73   70   77 1   
    74   71   72 2   
    75   71   83 1   
    76   73   74 1   
    77   73   75 1   
    78   73   78 1   
    79   74   80 1   
    80   74   81 1   
    81   74   82 1   
    82   75   79 1   
    83   83   84 1   
    84   83   91 1   
    85   84   85 1   
    86   84   87 1   
    87   84   92 1   
    88   85   86 2   
    89   85  102 1   
    90   87   88 1   
    91   87   89 1   
    92   87   93 1   
    93   88   90 1   
    94   88   94 1   
    95   88   95 1   
    96   89   96 1   
    97   89   97 1   
    98   89   98 1   
    99   90   99 1   
   100   90  100 1   
   101   90  101 1   
   102  102  103 1   
   103  102  110 1   
   104  103  104 1   
   105  103  106 1   
   106  103  111 1   
   107  104  105 2   
   108  104  114 1   
   109  106  107 1   
   110  106  112 1   
   111  106  113 1   
   112  107  108 1   
   113  107  109 1   
   114  114  115 1   
   115  114  125 1   
   116  115  116 1   
   117  115  118 1   
   118  115  126 1   
   119  116  117 2   
   120  116  134 1   
   121  118  119 1   
   122  118  127 1   
   123  118  128 1   
   124  119  120 ar  
   125  119  121 ar  
   126  120  122 ar  
   127  120  129 1   
   128  121  123 ar  
   129  121  130 1   
   130  122  124 ar  
   131  122  131 1   
   132  123  124 ar  
   133  123  132 1   
   134  124  133 1   
   135  134  135 1   
   136  134  140 1   
   137  135  136 1   
   138  135  138 1   
   139  135  141 1   
   140  136  137 2   
   141  136  148 1   
   142  138  139 1   
   143  138  142 1   
   144  138  143 1   
   145  139  140 1   
   146  139  144 1   
   147  139  145 1   
   148  140  146 1   
   149  140  147 1   
   150  148  149 1   
   151  148  157 1   
   152  149  150 1   
   153  149  152 1   
   154  149  158 1   
   155  150  151 2   
   156  150  163 1   
   157  152  153 1   
   158  152  159 1   
   159  152  160 1   
   160  153  154 1   
   161  153  161 1   
   162  153  162 1   
   163  154  155 1   
   164  154  156 1   
   165  163  164 1   
   166  163  168 1   
   167  164  165 1   
   168  164  166 1   
   169  164  167 1   
   170  170  171 1   
   171  170  172 1   
   172  173  174 1   
   173  173  175 1   
   174  176  177 1   
   175  176  178 1   
   176  179  180 1   
   177  179  181 1   
@<TRIPOS>SUBSTRUCTURE
     1 MOL         1 TEMP              0 ****  ****    0 ROOT
