@<TRIPOS>MOLECULE
MOL
  192   187     1     0     0
SMALL
resp


@<TRIPOS>ATOM
      1 C1         -2.4010    8.4620   -1.4970 c3        1 MOL     -0.365677
      2 C2         -1.6370    7.1480   -1.1330 c         1 MOL      0.570467
      3 O1         -1.1190    6.3900   -1.9700 o         1 MOL     -0.553768
      4 H1         -1.9600    8.9030   -2.3910 hc        1 MOL      0.098436
      5 H2         -3.4500    8.2320   -1.6870 hc        1 MOL      0.098436
      6 H3         -2.3270    9.1680   -0.6700 hc        1 MOL      0.098436
      7 N1         -1.7160    6.7910    0.1500 n         1 MOL     -0.335755
      8 C3         -1.0100    5.6340    0.7010 c3        1 MOL     -0.050616
      9 C4         -1.7510    4.3090    0.7010 c         1 MOL      0.433038
     10 O2         -1.2080    3.2900    1.1180 o         1 MOL     -0.461198
     11 C5         -0.4810    6.0440    2.1310 c3        1 MOL     -0.231493
     12 C6         -1.7680    6.3950    2.9410 c         1 MOL      0.690409
     13 O3         -2.2520    5.5210    3.7050 o         1 MOL     -0.679149
     14 O4         -2.3350    7.5070    2.7890 o         1 MOL     -0.679149
     15 H4         -2.2670    7.3650    0.7690 hn        1 MOL      0.222286
     16 H5         -0.1040    5.5570    0.1110 h1        1 MOL      0.134457
     17 H6          0.2490    6.8530    2.0350 hc        1 MOL      0.077732
     18 H7         -0.0080    5.1540    2.5300 hc        1 MOL      0.077732
     19 N2         -3.0840    4.3660    0.3080 n         1 MOL     -0.358019
     20 C7         -4.0530    3.2510    0.3310 c3        1 MOL      0.140498
     21 C8         -4.1960    2.4630   -0.9810 c         1 MOL      0.559916
     22 O5         -4.1010    3.0600   -2.0980 o         1 MOL     -0.564962
     23 C9         -5.4450    3.8810    0.6810 c3        1 MOL     -0.078360
     24 C10        -5.4250    4.7140    1.9780 c3        1 MOL     -0.049131
     25 C11        -5.1680    4.0110    3.3080 c3        1 MOL     -0.332889
     26 C12        -5.1910    4.9540    4.5760 c3        1 MOL      0.168272
     27 N3         -4.7170    6.3310    4.3730 n4        1 MOL     -0.110432
     28 H8         -3.4060    5.2710   -0.0040 hn        1 MOL      0.230650
     29 H9         -3.6960    2.6380    1.1570 h1        1 MOL      0.136366
     30 H10        -6.1280    3.0530    0.8550 hc        1 MOL      0.037145
     31 H11        -5.8050    4.5060   -0.1380 hc        1 MOL      0.037145
     32 H12        -6.3350    5.3130    2.0040 hc        1 MOL      0.035532
     33 H13        -4.7240    5.5300    1.8530 hc        1 MOL      0.035532
     34 H14        -4.1940    3.5280    3.3030 hc        1 MOL      0.136282
     35 H15        -5.9790    3.2990    3.4560 hc        1 MOL      0.136282
     36 H16        -4.6650    4.5990    5.4640 hx        1 MOL      0.026043
     37 H17        -6.2390    5.0430    4.8610 hx        1 MOL      0.026043
     38 H18        -5.0390    6.7850    5.2080 hn        1 MOL      0.225559
     39 H19        -3.7210    6.4360    4.2230 hn        1 MOL      0.225559
     40 H20        -5.1580    6.8280    3.6070 hn        1 MOL      0.225559
     41 N4         -4.5600    1.2100   -0.9940 n         1 MOL     -0.505666
     42 C13        -4.5650    0.2280    0.1350 c3        1 MOL      0.040188
     43 C14        -5.5570    0.4150    1.3120 c         1 MOL      0.375208
     44 O6         -5.0620    0.5500    2.4440 o         1 MOL     -0.537024
     45 C15        -3.1540   -0.2010    0.5230 c3        1 MOL     -0.222621
     46 C16        -2.2290   -0.4750   -0.6200 c         1 MOL      0.779482
     47 O7         -2.6750   -0.9570   -1.7280 o         1 MOL     -0.732173
     48 O8         -0.9900   -0.3770   -0.4470 o         1 MOL     -0.732173
     49 H21        -4.7970    0.8340   -1.9030 hn        1 MOL      0.315511
     50 H22        -5.0610   -0.6770   -0.2370 h1        1 MOL      0.095296
     51 H23        -3.1450   -1.0830    1.1600 hc        1 MOL      0.077333
     52 H24        -2.7280    0.6430    1.0790 hc        1 MOL      0.077333
     53 N5         -6.9080    0.4970    1.2030 n         1 MOL     -0.287078
     54 C17        -7.7040    0.3420    0.0300 c3        1 MOL     -0.132543
     55 C18        -8.6700   -0.8260    0.2180 c         1 MOL      0.521926
     56 O9         -9.3850   -0.9260    1.2020 o         1 MOL     -0.543860
     57 H25        -7.3620    0.4310    2.1000 hn        1 MOL      0.278548
     58 H26        -7.1440    0.1370   -0.8730 h1        1 MOL      0.096238
     59 H27        -8.4040    1.1710   -0.0860 h1        1 MOL      0.096238
     60 N6         -8.9510   -1.7180   -0.7720 n         1 MOL     -0.315613
     61 C19        -8.4790   -1.6730   -2.1350 c3        1 MOL     -0.055844
     62 C20        -7.1140   -2.3790   -2.3730 c         1 MOL      0.530360
     63 O10        -6.6490   -2.4550   -3.5120 o         1 MOL     -0.540853
     64 C21        -9.5050   -2.0850   -3.2030 c3        1 MOL     -0.251102
     65 C22       -10.7940   -1.3570   -3.0420 c         1 MOL      0.773192
     66 O11       -11.7500   -1.9630   -2.5810 o         1 MOL     -0.647973
     67 O12       -10.8560   -0.1650   -3.4190 o         1 MOL     -0.647973
     68 H28        -9.5360   -2.4980   -0.4770 hn        1 MOL      0.275795
     69 H29        -8.2670   -0.6220   -2.3560 h1        1 MOL      0.092431
     70 H30        -9.6550   -3.1620   -3.1000 hc        1 MOL      0.066135
     71 H31        -9.1700   -2.0660   -4.2350 hc        1 MOL      0.066135
     72 N7         -6.4240   -2.8070   -1.3160 n         1 MOL     -0.274298
     73 C23        -5.0660   -3.3220   -1.3570 c3        1 MOL     -0.013220
     74 C24        -4.3480   -3.2200   -0.0350 c         1 MOL      0.819986
     75 O13        -4.9970   -2.8200    0.9650 o         1 MOL     -0.503513
     76 H32        -6.8490   -2.8730   -0.4040 hn        1 MOL      0.141676
     77 H33        -4.4710   -2.8310   -2.1170 h1        1 MOL      0.025934
     78 H34        -5.1620   -4.3960   -1.5410 h1        1 MOL      0.025934
     79 N8         -3.1370   -3.7320    0.0230 n         1 MOL     -1.017311
     80 C25        -2.4400   -4.1060    1.3400 c3        1 MOL     -0.035064
     81 C26        -0.9880   -3.5940    1.3380 c         1 MOL      0.640644
     82 O14        -0.3670   -3.2570    0.3210 o         1 MOL     -0.634063
     83 C27        -2.4590   -5.5880    1.5000 c3        1 MOL      0.495548
     84 C28        -1.5010   -6.3480    0.5240 c3        1 MOL     -0.379383
     85 O15        -3.7670   -6.0960    1.3270 oh        1 MOL     -0.635594
     86 H35        -2.7380   -4.0630   -0.8430 hn        1 MOL      0.389677
     87 H36        -2.9450   -3.6140    2.1720 h1        1 MOL      0.138720
     88 H37        -1.9970   -5.8010    2.4730 h1        1 MOL      0.011474
     89 H38        -3.9320   -6.1030    0.3880 ho        1 MOL      0.432562
     90 H39        -1.5380   -7.3900    0.8290 hc        1 MOL      0.086364
     91 H40        -1.8370   -6.2380   -0.5120 hc        1 MOL      0.086364
     92 H41        -0.5010   -5.9380    0.6150 hc        1 MOL      0.086364
     93 N9         -0.3650   -3.5190    2.4700 n         1 MOL     -0.451427
     94 C29         0.9060   -2.8510    2.6320 c3        1 MOL     -0.174869
     95 C30         2.0340   -3.8950    2.6160 c         1 MOL      0.482527
     96 O16         2.1440   -4.8140    3.4420 o         1 MOL     -0.527790
     97 C31         1.0260   -2.0330    3.9840 c3        1 MOL      0.100280
     98 C32        -0.1620   -1.0480    4.1850 c3        1 MOL      0.120611
     99 C33         2.3700   -1.3020    4.1940 c3        1 MOL     -0.305798
    100 C34        -0.0790   -0.4140    5.5200 c3        1 MOL     -0.299787
    101 H42        -0.7810   -3.7840    3.3570 hn        1 MOL      0.286101
    102 H43         1.1030   -2.1130    1.8530 h1        1 MOL      0.179437
    103 H44         0.9550   -2.7550    4.8030 hc        1 MOL      0.015574
    104 H45        -1.0980   -1.6210    4.1430 hc        1 MOL      0.018718
    105 H46        -0.2050   -0.2660    3.4220 hc        1 MOL      0.018718
    106 H47         2.3970   -0.4850    3.4670 hc        1 MOL      0.081681
    107 H48         2.5960   -0.9240    5.1850 hc        1 MOL      0.081681
    108 H49         3.1630   -2.0020    3.9630 hc        1 MOL      0.081681
    109 H50         0.7670    0.2780    5.5530 hc        1 MOL      0.078271
    110 H51        -1.0000    0.1390    5.6420 hc        1 MOL      0.078271
    111 H52        -0.0540   -1.1420    6.3260 hc        1 MOL      0.078271
    112 N10         2.7910   -3.7160    1.5540 n         1 MOL      0.004592
    113 C35         4.0450   -4.5140    1.3010 c3        1 MOL     -0.588417
    114 C36         5.3100   -3.7000    1.7470 c         1 MOL      0.591131
    115 O17         6.3780   -4.3000    2.0470 o         1 MOL     -0.522409
    116 C37         4.1520   -4.8890   -0.1470 c3        1 MOL      0.575708
    117 C38         4.5170   -3.6780   -1.0200 c3        1 MOL     -0.297596
    118 O18         2.9190   -5.2720   -0.6700 oh        1 MOL     -0.695311
    119 H53         2.6200   -2.9160    0.9630 hn        1 MOL      0.165605
    120 H54         4.0360   -5.4260    1.8900 h1        1 MOL      0.199864
    121 H55         4.9020   -5.6310   -0.4480 h1        1 MOL     -0.002751
    122 H56         2.4040   -5.7110    0.0050 ho        1 MOL      0.392098
    123 H57         3.7550   -2.9050   -0.9420 hc        1 MOL      0.084693
    124 H58         5.5050   -3.3420   -0.6880 hc        1 MOL      0.084693
    125 H59         4.4870   -3.9830   -2.0690 hc        1 MOL      0.084693
    126 N11         5.2200   -2.3710    1.9390 n         1 MOL     -0.195729
    127 C39         6.2590   -1.3720    2.1740 c3        1 MOL     -0.258577
    128 C40         7.2160   -1.2420    1.0040 c         1 MOL      0.547952
    129 O19         7.8050   -2.2220    0.5300 o         1 MOL     -0.465276
    130 C41         7.0240   -1.5640    3.5150 c3        1 MOL      0.610113
    131 C42         6.0870   -1.8810    4.6260 c3        1 MOL     -0.362735
    132 O20         7.9020   -0.5130    3.7780 oh        1 MOL     -0.691177
    133 H60         4.3240   -1.9390    1.7410 hn        1 MOL      0.185707
    134 H61         5.7180   -0.4250    2.2220 h1        1 MOL      0.112559
    135 H62         7.6170   -2.4620    3.3570 h1        1 MOL     -0.043854
    136 H63         8.7850   -0.8530    3.9050 ho        1 MOL      0.403139
    137 H64         5.5750   -2.7920    4.3060 hc        1 MOL      0.084302
    138 H65         6.6680   -2.1540    5.5010 hc        1 MOL      0.084302
    139 H66         5.3860   -1.0510    4.7730 hc        1 MOL      0.084302
    140 N12         7.2700    0.0180    0.4710 n         1 MOL     -0.533886
    141 C43         8.1810    0.3410   -0.6040 c3        1 MOL      0.043272
    142 C44         7.5130    0.8750   -1.8770 c         1 MOL      0.575959
    143 O21         8.1150    0.8440   -2.9610 o         1 MOL     -0.587656
    144 C45         9.2940    1.2370   -0.0080 c3        1 MOL     -0.062575
    145 C46        10.5240    1.2590   -0.8200 c3        1 MOL      0.255168
    146 C47        11.7530    1.9220   -0.1250 c3        1 MOL     -0.112363
    147 C48        12.6490    2.4980   -1.2340 c3        1 MOL     -0.059050
    148 N13        13.5820    3.5740   -0.7020 n4        1 MOL     -0.188148
    149 H67         6.7450    0.7370    0.9270 hn        1 MOL      0.305796
    150 H68         8.6500   -0.5440   -1.0430 h1        1 MOL      0.072037
    151 H69         9.6520    0.8960    0.9610 hc        1 MOL      0.007797
    152 H70         8.8720    2.2380    0.0680 hc        1 MOL      0.007797
    153 H71        10.2940    1.8160   -1.7330 hc        1 MOL     -0.035936
    154 H72        10.8600    0.2800   -1.1730 hc        1 MOL     -0.035936
    155 H73        12.2760    1.0890    0.3510 hc        1 MOL      0.056213
    156 H74        11.4570    2.7650    0.5070 hc        1 MOL      0.056213
    157 H75        11.9600    3.0560   -1.8620 hx        1 MOL      0.098998
    158 H76        13.2080    1.7040   -1.7450 hx        1 MOL      0.098998
    159 H77        14.3090    3.1810   -0.1140 hn        1 MOL      0.214818
    160 H78        14.0800    3.9990   -1.4720 hn        1 MOL      0.214818
    161 H79        13.0830    4.3050   -0.2250 hn        1 MOL      0.214818
    162 N14         6.3000    1.3680   -1.7930 n         1 MOL     -0.239696
    163 C49         5.4560    1.5470   -2.9650 c3        1 MOL     -0.348769
    164 C50         5.6910    2.8900   -3.6160 c         1 MOL      0.484893
    165 O22         5.2980    3.9160   -3.0550 o         1 MOL     -0.521590
    166 C51         3.9440    1.1960   -2.6930 c3        1 MOL      0.048964
    167 C52         3.8390   -0.3170   -2.4450 c3        1 MOL     -0.015029
    168 C53         2.3730   -0.7310   -2.4320 c         1 MOL      0.688324
    169 O23         1.6630   -0.7860   -3.4800 o         1 MOL     -0.743275
    170 O24         1.8180   -1.0570   -1.3840 o         1 MOL     -0.743275
    171 H80         6.0070    1.5060   -0.8300 hn        1 MOL      0.256037
    172 H81         5.6930    0.8740   -3.7950 h1        1 MOL      0.177464
    173 H82         3.3520    1.5060   -3.5500 hc        1 MOL      0.064694
    174 H83         3.5630    1.7010   -1.8000 hc        1 MOL      0.064694
    175 H84         4.3200   -0.5180   -1.4830 hc        1 MOL     -0.028882
    176 H85         4.3670   -0.8290   -3.2560 hc        1 MOL     -0.028882
    177 N15         6.3150    3.0290   -4.7860 n         1 MOL     -0.212416
    178 C54         6.8610    4.1470   -5.4300 c3        1 MOL     -0.147866
    179 H86         6.3310    5.0440   -5.1100 h1        1 MOL      0.084225
    180 H87         7.9160    4.2380   -5.1700 h1        1 MOL      0.084225
    181 H88         6.7610    4.0320   -6.5090 h1        1 MOL      0.084225
    182 H89         6.5640    2.0960   -5.1050 hn        1 MOL      0.207758
    183 Ca1        -0.4790   -1.9640   -2.4420 Ca        1 MOL      1.773022
    184 O25        -1.3040   -0.1790   -4.4450 oh        1 MOL     -0.882281
    185 H90        -1.2950    0.7790   -4.4340 ho        1 MOL      0.435035
    186 H91        -1.5240   -0.4110   -5.3500 ho        1 MOL      0.435035
    187 O26        -0.1460   -2.9430   -4.7620 oh        1 MOL     -0.882281
    188 H92         0.4040   -2.4960   -5.4020 ho        1 MOL      0.435035
    189 H93         0.0380   -3.8760   -4.8820 ho        1 MOL      0.435035
    190 O27         0.7960   -4.3030   -2.1520 oh        1 MOL     -0.882281
    191 H94         0.2970   -5.1220   -2.0620 ho        1 MOL      0.435035
    192 H95         1.5340   -4.4060   -1.5390 ho        1 MOL      0.435035
@<TRIPOS>BOND
     1    1    2 1   
     2    1    4 1   
     3    1    5 1   
     4    1    6 1   
     5    2    3 2   
     6    2    7 1   
     7    7    8 1   
     8    7   15 1   
     9    8    9 1   
    10    8   11 1   
    11    8   16 1   
    12    9   10 2   
    13    9   19 1   
    14   11   12 1   
    15   11   17 1   
    16   11   18 1   
    17   12   13 1   
    18   12   14 1   
    19   19   20 1   
    20   19   28 1   
    21   20   21 1   
    22   20   23 1   
    23   20   29 1   
    24   21   22 2   
    25   21   41 1   
    26   23   24 1   
    27   23   30 1   
    28   23   31 1   
    29   24   25 1   
    30   24   32 1   
    31   24   33 1   
    32   25   26 1   
    33   25   34 1   
    34   25   35 1   
    35   26   27 1   
    36   26   36 1   
    37   26   37 1   
    38   27   38 1   
    39   27   39 1   
    40   27   40 1   
    41   41   42 1   
    42   41   49 1   
    43   42   43 1   
    44   42   45 1   
    45   42   50 1   
    46   43   44 2   
    47   43   53 1   
    48   45   46 1   
    49   45   51 1   
    50   45   52 1   
    51   46   47 1   
    52   46   48 1   
    53   53   54 1   
    54   53   57 1   
    55   54   55 1   
    56   54   58 1   
    57   54   59 1   
    58   55   56 2   
    59   55   60 1   
    60   60   61 1   
    61   60   68 1   
    62   61   62 1   
    63   61   64 1   
    64   61   69 1   
    65   62   63 2   
    66   62   72 1   
    67   64   65 1   
    68   64   70 1   
    69   64   71 1   
    70   65   66 1   
    71   65   67 1   
    72   72   73 1   
    73   72   76 1   
    74   73   74 1   
    75   73   77 1   
    76   73   78 1   
    77   74   75 2   
    78   74   79 1   
    79   79   80 1   
    80   79   86 1   
    81   80   81 1   
    82   80   83 1   
    83   80   87 1   
    84   81   82 2   
    85   81   93 1   
    86   83   84 1   
    87   83   85 1   
    88   83   88 1   
    89   84   90 1   
    90   84   91 1   
    91   84   92 1   
    92   85   89 1   
    93   93   94 1   
    94   93  101 1   
    95   94   95 1   
    96   94   97 1   
    97   94  102 1   
    98   95   96 2   
    99   95  112 1   
   100   97   98 1   
   101   97   99 1   
   102   97  103 1   
   103   98  100 1   
   104   98  104 1   
   105   98  105 1   
   106   99  106 1   
   107   99  107 1   
   108   99  108 1   
   109  100  109 1   
   110  100  110 1   
   111  100  111 1   
   112  112  113 1   
   113  112  119 1   
   114  113  114 1   
   115  113  116 1   
   116  113  120 1   
   117  114  115 2   
   118  114  126 1   
   119  116  117 1   
   120  116  118 1   
   121  116  121 1   
   122  117  123 1   
   123  117  124 1   
   124  117  125 1   
   125  118  122 1   
   126  126  127 1   
   127  126  133 1   
   128  127  128 1   
   129  127  130 1   
   130  127  134 1   
   131  128  129 2   
   132  128  140 1   
   133  130  131 1   
   134  130  132 1   
   135  130  135 1   
   136  131  137 1   
   137  131  138 1   
   138  131  139 1   
   139  132  136 1   
   140  140  141 1   
   141  140  149 1   
   142  141  142 1   
   143  141  144 1   
   144  141  150 1   
   145  142  143 2   
   146  142  162 1   
   147  144  145 1   
   148  144  151 1   
   149  144  152 1   
   150  145  146 1   
   151  145  153 1   
   152  145  154 1   
   153  146  147 1   
   154  146  155 1   
   155  146  156 1   
   156  147  148 1   
   157  147  157 1   
   158  147  158 1   
   159  148  159 1   
   160  148  160 1   
   161  148  161 1   
   162  162  163 1   
   163  162  171 1   
   164  163  164 1   
   165  163  166 1   
   166  163  172 1   
   167  164  165 2   
   168  164  177 1   
   169  166  167 1   
   170  166  173 1   
   171  166  174 1   
   172  167  168 1   
   173  167  175 1   
   174  167  176 1   
   175  168  169 1   
   176  168  170 1   
   177  177  178 1   
   178  177  182 1   
   179  178  179 1   
   180  178  180 1   
   181  178  181 1   
   182  184  185 1   
   183  184  186 1   
   184  187  188 1   
   185  187  189 1   
   186  190  191 1   
   187  190  192 1   
@<TRIPOS>SUBSTRUCTURE
     1 MOL         1 TEMP              0 ****  ****    0 ROOT
