@<TRIPOS>MOLECULE
MOL
  187   181     1     0     0
SMALL
resp


@<TRIPOS>ATOM
      1 C1         -4.1930   -7.0500   -3.0960 c3        1 MOL     -0.210794
      2 C2         -3.8630   -5.6030   -2.7070 c         1 MOL      0.708162
      3 O1         -3.2710   -4.9440   -3.5210 o         1 MOL     -0.584824
      4 H1         -4.2210   -7.1360   -4.1820 hc        1 MOL      0.036900
      5 H2         -3.4270   -7.7160   -2.6990 hc        1 MOL      0.036900
      6 H3         -5.1640   -7.3240   -2.6850 hc        1 MOL      0.036900
      7 N1         -4.4010   -5.0530   -1.6030 n         1 MOL     -0.536622
      8 C3         -5.3180   -5.7270   -0.6080 c3        1 MOL     -0.085568
      9 C4         -4.8210   -5.2800    0.7640 c         1 MOL      0.582695
     10 O2         -3.6090   -5.2370    0.9860 o         1 MOL     -0.460988
     11 C5         -6.7980   -5.3480   -0.9260 c3        1 MOL     -0.010847
     12 C6         -6.9760   -3.8460   -0.9840 c         1 MOL      0.492193
     13 O3         -6.9710   -3.1600    0.0670 o         1 MOL     -0.572269
     14 O4         -7.2290   -3.3070   -2.0630 o         1 MOL     -0.572269
     15 H4         -4.0240   -4.1200   -1.4730 hn        1 MOL      0.379428
     16 H5         -5.1570   -6.8080   -0.6380 h1        1 MOL      0.104010
     17 H6         -7.4830   -5.7920   -0.1990 hc        1 MOL     -0.003154
     18 H7         -7.0310   -5.7980   -1.8860 hc        1 MOL     -0.003154
     19 N2         -5.7490   -4.9560    1.6820 n         1 MOL     -0.596306
     20 C7         -5.4420   -4.6220    3.0590 c3        1 MOL      0.335659
     21 C8         -4.5110   -3.4220    3.1200 c         1 MOL      0.330411
     22 O5         -3.5190   -3.2990    3.9000 o         1 MOL     -0.497263
     23 C9         -5.0600   -5.9260    3.7040 c3        1 MOL     -0.439870
     24 H8         -6.7020   -4.7200    1.4420 hn        1 MOL      0.315727
     25 H9         -6.3510   -4.2410    3.5390 h1        1 MOL      0.015700
     26 H10        -4.9970   -5.7000    4.7710 hc        1 MOL      0.106896
     27 H11        -5.7780   -6.7300    3.5570 hc        1 MOL      0.106896
     28 H12        -4.1400   -6.3240    3.2850 hc        1 MOL      0.106896
     29 N3         -4.7440   -2.4790    2.1540 n         1 MOL     -0.079064
     30 C10        -3.8580   -1.3570    1.8200 c3        1 MOL     -0.076038
     31 C11        -3.7350   -0.3490    2.9980 c         1 MOL      0.367322
     32 O6         -4.7260   -0.2040    3.7390 o         1 MOL     -0.478295
     33 C12        -4.4310   -0.4540    0.6980 c3        1 MOL     -0.618001
     34 C13        -4.6930   -1.3300   -0.5620 c         1 MOL      0.768334
     35 O7         -5.6140   -0.9530   -1.3420 o         1 MOL     -0.657755
     36 O8         -4.0090   -2.3210   -0.8460 o         1 MOL     -0.657755
     37 H13        -5.4710   -2.7570    1.4940 hn        1 MOL     -0.001443
     38 H14        -2.8700   -1.7330    1.5370 h1        1 MOL      0.205316
     39 H15        -3.7470    0.3520    0.4380 hc        1 MOL      0.211523
     40 H16        -5.3470    0.0670    0.9780 hc        1 MOL      0.211523
     41 N4         -2.6390    0.4460    2.9440 n         1 MOL     -0.192835
     42 C14        -2.4850    1.5160    3.8730 c3        1 MOL     -0.098726
     43 C15        -3.1940    2.8360    3.5650 c         1 MOL      0.504858
     44 O9         -4.2720    2.9070    3.0330 o         1 MOL     -0.455421
     45 H17        -1.7990    0.3310    2.3980 hn        1 MOL      0.229854
     46 H18        -1.4190    1.7110    3.7800 h1        1 MOL      0.075726
     47 H19        -2.6750    1.1370    4.8820 h1        1 MOL      0.075726
     48 N5         -2.5420    4.0000    3.9050 n         1 MOL     -0.551852
     49 C16        -2.7080    5.3580    3.3290 c3        1 MOL      0.253531
     50 C17        -2.1570    5.4000    1.8550 c         1 MOL      0.474080
     51 O10        -0.9230    5.3420    1.5840 o         1 MOL     -0.432453
     52 C18        -2.1250    6.3380    4.3300 c3        1 MOL     -0.353386
     53 C19        -2.2380    7.8310    3.9060 c         1 MOL      0.663551
     54 N6         -3.5100    8.3280    3.8290 n         1 MOL     -0.891837
     55 O11        -1.3030    8.5160    3.5180 o         1 MOL     -0.477058
     56 H20        -1.7630    3.9390    4.5560 hn        1 MOL      0.300612
     57 H21        -3.7560    5.6550    3.2730 h1        1 MOL     -0.014739
     58 H22        -1.0730    6.0900    4.4260 hc        1 MOL      0.102902
     59 H23        -2.6540    6.2300    5.2750 hc        1 MOL      0.102902
     60 H24        -4.2590    7.8510    4.3100 hn        1 MOL      0.387114
     61 H25        -3.7030    9.1140    3.2300 hn        1 MOL      0.387114
     62 N7         -3.0180    5.6700    0.8500 n         1 MOL     -0.460499
     63 C20        -2.5260    5.8010   -0.5140 c3        1 MOL      0.037917
     64 C21        -1.5620    7.0020   -0.7480 c         1 MOL      0.448638
     65 O12        -1.6350    8.0470   -0.0920 o         1 MOL     -0.509036
     66 H26        -3.9990    5.8470    0.9760 hn        1 MOL      0.301799
     67 H27        -3.3750    5.9070   -1.1820 h1        1 MOL      0.061914
     68 H28        -1.9520    4.8870   -0.7110 h1        1 MOL      0.061914
     69 N8         -0.6360    6.8970   -1.7280 n         1 MOL     -0.344174
     70 C22        -0.5660    5.8010   -2.7120 c3        1 MOL     -0.384162
     71 C23         0.4670    4.7380   -2.2320 c         1 MOL      0.772372
     72 O13         1.5870    5.0840   -1.8300 o         1 MOL     -0.538867
     73 C24        -0.1410    6.3890   -4.0590 c3        1 MOL      0.501427
     74 C25        -0.3950    5.3960   -5.1990 c3        1 MOL     -0.393024
     75 O14        -0.9700    7.4880   -4.3090 oh        1 MOL     -0.655737
     76 H29        -0.1160    7.7540   -1.7950 hn        1 MOL      0.304672
     77 H30        -1.6070    5.5310   -2.8890 h1        1 MOL      0.107561
     78 H31         0.9160    6.6410   -4.1550 h1        1 MOL      0.064604
     79 H32        -1.8470    7.1200   -4.4160 ho        1 MOL      0.387233
     80 H33         0.1710    4.4780   -5.0530 hc        1 MOL      0.095545
     81 H34        -1.4610    5.1640   -5.2530 hc        1 MOL      0.095545
     82 H35        -0.0480    5.8450   -6.1370 hc        1 MOL      0.095545
     83 N9          0.1730    3.3660   -2.1940 n         1 MOL     -0.602780
     84 C26         1.0620    2.3220   -1.7110 c3        1 MOL     -0.000248
     85 C27         1.8460    1.6800   -2.9050 c         1 MOL      0.691801
     86 O15         1.3730    1.5850   -4.0420 o         1 MOL     -0.588195
     87 C28         0.4920    1.3380   -0.7410 c3        1 MOL      0.335079
     88 C29        -0.6200    0.5620   -1.4860 c3        1 MOL     -0.268218
     89 C30        -0.0660    1.9530    0.5230 c3        1 MOL     -0.035403
     90 C31        -1.0220   -0.7580   -0.7640 c3        1 MOL     -0.059020
     91 H36        -0.7930    3.2200   -2.4650 hn        1 MOL      0.260088
     92 H37         1.7470    2.8310   -1.0410 h1        1 MOL      0.111221
     93 H38         1.2630    0.6130   -0.4740 hc        1 MOL     -0.022753
     94 H39        -0.2190    0.2140   -2.4370 hc        1 MOL      0.063217
     95 H40        -1.4500    1.2440   -1.6350 hc        1 MOL      0.063217
     96 H41        -0.8380    2.6420    0.1900 hc        1 MOL     -0.032744
     97 H42        -0.5500    1.1520    1.0880 hc        1 MOL     -0.032744
     98 H43         0.7120    2.5240    1.0200 hc        1 MOL     -0.032744
     99 H44        -1.3520   -0.4620    0.2350 hc        1 MOL      0.036288
    100 H45        -1.8130   -1.3400   -1.2340 hc        1 MOL      0.036288
    101 H46        -0.1600   -1.4140   -0.7230 hc        1 MOL      0.036288
    102 N10         3.1120    1.2550   -2.6730 n         1 MOL     -0.685431
    103 C32         3.9920    1.5720   -1.4760 c3        1 MOL      0.548634
    104 C33         5.1300    0.5770   -1.3950 c         1 MOL      0.283956
    105 O16         5.4590   -0.1030   -2.4130 o         1 MOL     -0.483732
    106 C34         4.5960    3.0350   -1.3330 c3        1 MOL     -0.310702
    107 C35         5.4190    3.5830   -2.5830 c         1 MOL      0.706955
    108 O17         5.4590    4.8090   -2.7810 o         1 MOL     -0.647215
    109 O18         5.7650    2.8670   -3.5160 o         1 MOL     -0.647215
    110 H47         3.6590    0.9530   -3.4650 hn        1 MOL      0.354645
    111 H48         3.3910    1.3130   -0.6010 h1        1 MOL     -0.092097
    112 H49         5.2380    3.0800   -0.4560 hc        1 MOL      0.042759
    113 H50         3.7700    3.7470   -1.2680 hc        1 MOL      0.042759
    114 N11         5.7920    0.5640   -0.2140 n         1 MOL     -0.497740
    115 C36         7.1030    0.0840    0.0500 c3        1 MOL      0.701955
    116 C37         7.3310   -0.5960    1.4390 c         1 MOL     -0.021835
    117 O19         6.8650   -0.0270    2.4360 o         1 MOL     -0.405511
    118 C38         7.9640    1.2810   -0.0140 c3        1 MOL     -0.354238
    119 C39         9.3700    1.1140    0.4940 ca        1 MOL      0.207657
    120 C40         9.7000    1.4840    1.8360 ca        1 MOL     -0.166863
    121 C41        10.3470    0.6610   -0.3750 ca        1 MOL     -0.166863
    122 C42        11.0710    1.3720    2.2210 ca        1 MOL     -0.136375
    123 C43        11.7030    0.5170   -0.0100 ca        1 MOL     -0.136375
    124 C44        12.0840    0.9460    1.2790 ca        1 MOL     -0.145135
    125 H51         5.3130    1.0990    0.4980 hn        1 MOL      0.274334
    126 H52         7.2090   -0.7030   -0.6990 h1        1 MOL     -0.050465
    127 H53         7.5400    2.0820    0.5760 hc        1 MOL      0.086239
    128 H54         8.0150    1.5520   -1.0670 hc        1 MOL      0.086239
    129 H55         8.9780    1.8610    2.5440 ha        1 MOL      0.138537
    130 H56        10.0220    0.3630   -1.3660 ha        1 MOL      0.138537
    131 H57        11.4230    1.6050    3.2130 ha        1 MOL      0.106786
    132 H58        12.5010    0.1120   -0.6090 ha        1 MOL      0.106786
    133 H59        13.0810    0.8240    1.6700 ha        1 MOL      0.101140
    134 N12         8.1280   -1.7400    1.4750 n         1 MOL      0.036452
    135 C45         8.7990   -2.3490    0.3190 c3        1 MOL     -0.051823
    136 C46         7.8800   -3.3690   -0.5140 c         1 MOL      0.589443
    137 O20         7.8450   -3.4090   -1.7390 o         1 MOL     -0.526624
    138 C47         9.9530   -3.0980    0.8750 c3        1 MOL     -0.022674
    139 C48         9.5570   -3.4400    2.3390 c3        1 MOL     -0.164855
    140 C49         8.7720   -2.2200    2.7040 c3        1 MOL      0.047568
    141 H60         9.1560   -1.5630   -0.3490 h1        1 MOL     -0.006921
    142 H61        10.2110   -4.0250    0.3540 hc        1 MOL      0.037598
    143 H62        10.8900   -2.5300    0.8590 hc        1 MOL      0.037598
    144 H63         8.9440   -4.3350    2.3970 hc        1 MOL      0.044075
    145 H64        10.5090   -3.5260    2.8710 hc        1 MOL      0.044075
    146 H65         8.0560   -2.4930    3.4880 h1        1 MOL      0.043611
    147 H66         9.4530   -1.5140    3.1840 h1        1 MOL      0.043611
    148 N13         7.1740   -4.2720    0.2070 n         1 MOL     -0.623608
    149 C50         5.9290   -4.8380   -0.2760 c3        1 MOL      0.106567
    150 C51         6.0060   -6.3760   -0.1000 c         1 MOL      0.375905
    151 O21         5.5390   -6.9050    0.9400 o         1 MOL     -0.528627
    152 C52         4.7500   -4.2670    0.4830 c3        1 MOL     -0.088116
    153 C53         4.3750   -2.7860    0.2040 c3        1 MOL     -0.199027
    154 C54         3.3890   -2.2450    1.2480 c         1 MOL      0.655733
    155 O22         3.8220   -1.8480    2.3420 o         1 MOL     -0.624000
    156 O23         2.1530   -2.3940    1.1140 o         1 MOL     -0.624000
    157 H67         7.3040   -4.2810    1.2090 hn        1 MOL      0.382732
    158 H68         5.8340   -4.5060   -1.3120 h1        1 MOL      0.141709
    159 H69         4.9320   -4.4290    1.5450 hc        1 MOL      0.065192
    160 H70         3.8110   -4.7260    0.1790 hc        1 MOL      0.065192
    161 H71         3.9850   -2.6880   -0.8150 hc        1 MOL      0.047668
    162 H72         5.3070   -2.2240    0.1620 hc        1 MOL      0.047668
    163 N14         6.7330   -7.0820   -0.9800 n         1 MOL     -0.295050
    164 C55         7.0490   -6.7980   -2.3490 c3        1 MOL     -0.067364
    165 H73         6.4270   -7.4110   -3.0000 h1        1 MOL      0.058174
    166 H74         6.8610   -5.7440   -2.5550 h1        1 MOL      0.058174
    167 H75         8.0990   -7.0230   -2.5340 h1        1 MOL      0.058174
    168 H76         6.8350   -8.0340   -0.6580 hn        1 MOL      0.238026
    169 Ca1        -8.1600   -1.1170   -1.1280 Ca        1 MOL      1.583160
    170 O24       -10.5670    0.1370   -1.2350 oh        1 MOL     -0.708876
    171 H77       -11.2270   -0.5200   -1.4190 ho        1 MOL      0.322593
    172 H78       -11.0530    0.8850   -0.9010 ho        1 MOL      0.322593
    173 O25        -7.7930    1.4550   -0.6710 oh        1 MOL     -0.708876
    174 H79        -7.0220    1.8170   -0.2230 ho        1 MOL      0.322593
    175 H80        -8.4380    2.1460   -0.6540 ho        1 MOL      0.322593
    176 O26        -8.0280   -0.0670   -3.6250 oh        1 MOL     -0.708876
    177 H81        -8.0300    0.8060   -4.0240 ho        1 MOL      0.322593
    178 H82        -8.5240   -0.6140   -4.2230 ho        1 MOL      0.322593
    179 O27       -10.2360   -2.7280   -0.0060 oh        1 MOL     -0.708876
    180 H83        -9.9510   -3.4980    0.4750 ho        1 MOL      0.322593
    181 H84       -11.1120   -2.5390    0.3250 ho        1 MOL      0.322593
    182 O28        -8.4270   -0.1520    1.7050 oh        1 MOL     -0.708876
    183 H85        -9.3180   -0.0790    2.0500 ho        1 MOL      0.322593
    184 H86        -8.0170    0.6850    1.9010 ho        1 MOL      0.322593
    185 O29       -10.1090   -2.1240   -2.8100 oh        1 MOL     -0.708876
    186 H87       -10.9910   -1.7470   -2.7550 ho        1 MOL      0.322593
    187 H88       -10.2610   -3.0590   -2.9710 ho        1 MOL      0.322593
@<TRIPOS>BOND
     1    1    2 1   
     2    1    4 1   
     3    1    5 1   
     4    1    6 1   
     5    2    3 2   
     6    2    7 1   
     7    7    8 1   
     8    7   15 1   
     9    8    9 1   
    10    8   11 1   
    11    8   16 1   
    12    9   10 2   
    13    9   19 1   
    14   11   12 1   
    15   11   17 1   
    16   11   18 1   
    17   12   13 1   
    18   12   14 1   
    19   19   20 1   
    20   19   24 1   
    21   20   21 1   
    22   20   23 1   
    23   20   25 1   
    24   21   22 2   
    25   21   29 1   
    26   23   26 1   
    27   23   27 1   
    28   23   28 1   
    29   29   30 1   
    30   29   37 1   
    31   30   31 1   
    32   30   33 1   
    33   30   38 1   
    34   31   32 2   
    35   31   41 1   
    36   33   34 1   
    37   33   39 1   
    38   33   40 1   
    39   34   35 1   
    40   34   36 1   
    41   41   42 1   
    42   41   45 1   
    43   42   43 1   
    44   42   46 1   
    45   42   47 1   
    46   43   44 2   
    47   43   48 1   
    48   48   49 1   
    49   48   56 1   
    50   49   50 1   
    51   49   52 1   
    52   49   57 1   
    53   50   51 2   
    54   50   62 1   
    55   52   53 1   
    56   52   58 1   
    57   52   59 1   
    58   53   54 1   
    59   53   55 2   
    60   54   60 1   
    61   54   61 1   
    62   62   63 1   
    63   62   66 1   
    64   63   64 1   
    65   63   67 1   
    66   63   68 1   
    67   64   65 2   
    68   64   69 1   
    69   69   70 1   
    70   69   76 1   
    71   70   71 1   
    72   70   73 1   
    73   70   77 1   
    74   71   72 2   
    75   71   83 1   
    76   73   74 1   
    77   73   75 1   
    78   73   78 1   
    79   74   80 1   
    80   74   81 1   
    81   74   82 1   
    82   75   79 1   
    83   83   84 1   
    84   83   91 1   
    85   84   85 1   
    86   84   87 1   
    87   84   92 1   
    88   85   86 2   
    89   85  102 1   
    90   87   88 1   
    91   87   89 1   
    92   87   93 1   
    93   88   90 1   
    94   88   94 1   
    95   88   95 1   
    96   89   96 1   
    97   89   97 1   
    98   89   98 1   
    99   90   99 1   
   100   90  100 1   
   101   90  101 1   
   102  102  103 1   
   103  102  110 1   
   104  103  104 1   
   105  103  106 1   
   106  103  111 1   
   107  104  105 2   
   108  104  114 1   
   109  106  107 1   
   110  106  112 1   
   111  106  113 1   
   112  107  108 1   
   113  107  109 1   
   114  114  115 1   
   115  114  125 1   
   116  115  116 1   
   117  115  118 1   
   118  115  126 1   
   119  116  117 2   
   120  116  134 1   
   121  118  119 1   
   122  118  127 1   
   123  118  128 1   
   124  119  120 ar  
   125  119  121 ar  
   126  120  122 ar  
   127  120  129 1   
   128  121  123 ar  
   129  121  130 1   
   130  122  124 ar  
   131  122  131 1   
   132  123  124 ar  
   133  123  132 1   
   134  124  133 1   
   135  134  135 1   
   136  134  140 1   
   137  135  136 1   
   138  135  138 1   
   139  135  141 1   
   140  136  137 2   
   141  136  148 1   
   142  138  139 1   
   143  138  142 1   
   144  138  143 1   
   145  139  140 1   
   146  139  144 1   
   147  139  145 1   
   148  140  146 1   
   149  140  147 1   
   150  148  149 1   
   151  148  157 1   
   152  149  150 1   
   153  149  152 1   
   154  149  158 1   
   155  150  151 2   
   156  150  163 1   
   157  152  153 1   
   158  152  159 1   
   159  152  160 1   
   160  153  154 1   
   161  153  161 1   
   162  153  162 1   
   163  154  155 1   
   164  154  156 1   
   165  163  164 1   
   166  163  168 1   
   167  164  165 1   
   168  164  166 1   
   169  164  167 1   
   170  170  171 1   
   171  170  172 1   
   172  173  174 1   
   173  173  175 1   
   174  176  177 1   
   175  176  178 1   
   176  179  180 1   
   177  179  181 1   
   178  182  183 1   
   179  182  184 1   
   180  185  186 1   
   181  185  187 1   
@<TRIPOS>SUBSTRUCTURE
     1 MOL         1 TEMP              0 ****  ****    0 ROOT
