@<TRIPOS>MOLECULE
MOL
  181   177     1     0     0
SMALL
resp


@<TRIPOS>ATOM
      1 C1         -8.8840   -6.1090   -3.1800 c3        1 MOL     -0.208505
      2 C2         -7.8520   -5.1510   -2.5820 c         1 MOL      0.627728
      3 O1         -6.8230   -5.6160   -2.1050 o         1 MOL     -0.572314
      4 H1         -9.4280   -6.6050   -2.3760 hc        1 MOL      0.043847
      5 H2         -9.5840   -5.5490   -3.8000 hc        1 MOL      0.043847
      6 H3         -8.3760   -6.8560   -3.7890 hc        1 MOL      0.043847
      7 N1         -8.0960   -3.8460   -2.5270 n         1 MOL     -0.512369
      8 C3         -9.2710   -3.1450   -3.1790 c3        1 MOL      0.086463
      9 C4        -10.2600   -2.6710   -2.1190 c         1 MOL      0.498419
     10 O2        -11.3650   -2.2210   -2.4050 o         1 MOL     -0.549291
     11 C5         -8.6540   -2.0360   -4.0530 c3        1 MOL     -0.319488
     12 C6         -7.7540   -1.0840   -3.3300 c         1 MOL      0.823211
     13 O3         -7.3300   -0.0680   -3.9450 o         1 MOL     -0.771951
     14 O4         -7.2090   -1.3590   -2.2040 o         1 MOL     -0.771951
     15 H4         -7.4380   -3.2830   -2.0120 hn        1 MOL      0.358483
     16 H5         -9.8480   -3.7720   -3.8590 h1        1 MOL      0.083489
     17 H6         -9.3630   -1.3910   -4.5660 hc        1 MOL      0.093048
     18 H7         -7.9640   -2.4700   -4.7840 hc        1 MOL      0.093048
     19 N2         -9.8660   -2.8660   -0.8120 n         1 MOL     -0.443510
     20 C7        -10.5720   -2.5180    0.4210 c3        1 MOL      0.245942
     21 C8         -9.8990   -1.3720    1.1110 c         1 MOL      0.358910
     22 O5        -10.3350   -1.0340    2.2180 o         1 MOL     -0.549878
     23 C9        -10.8290   -3.8980    1.1790 c3        1 MOL     -0.329172
     24 H8         -8.9290   -3.2060   -0.6990 hn        1 MOL      0.247705
     25 H9        -11.5340   -2.0980    0.1320 h1        1 MOL      0.055405
     26 H10       -11.4280   -4.5240    0.5110 hc        1 MOL      0.095155
     27 H11        -9.9520   -4.4780    1.4780 hc        1 MOL      0.095155
     28 H12       -11.4100   -3.6380    2.0640 hc        1 MOL      0.095155
     29 N3         -8.7410   -0.7680    0.7160 n         1 MOL     -0.111616
     30 C10        -8.0900    0.3510    1.4610 c3        1 MOL     -0.008076
     31 C11        -7.7660    1.5200    0.4810 c         1 MOL      0.350208
     32 O6         -7.8540    1.3890   -0.7900 o         1 MOL     -0.501417
     33 C12        -6.8130   -0.0940    2.1230 c3        1 MOL     -0.113307
     34 C13        -5.7670   -0.7520    1.1920 c         1 MOL      0.563515
     35 O7         -5.4580   -0.2180    0.0810 o         1 MOL     -0.625832
     36 O8         -5.1940   -1.7870    1.5680 o         1 MOL     -0.625832
     37 H13        -8.4930   -0.9430   -0.2430 hn        1 MOL      0.132567
     38 H14        -8.8590    0.7280    2.1340 h1        1 MOL      0.058722
     39 H15        -7.0260   -0.7600    2.9630 hc        1 MOL      0.042719
     40 H16        -6.3770    0.7550    2.6390 hc        1 MOL      0.042719
     41 N4         -7.4250    2.6970    1.0310 n         1 MOL     -0.201177
     42 C14        -7.0750    3.8900    0.2580 c3        1 MOL     -0.323097
     43 C15        -5.5880    3.8480   -0.1100 c         1 MOL      0.666924
     44 O9         -5.1890    2.9520   -0.8460 o         1 MOL     -0.636876
     45 H17        -7.4220    2.8480    2.0270 hn        1 MOL      0.260826
     46 H18        -7.1730    4.7920    0.8540 h1        1 MOL      0.128066
     47 H19        -7.6760    3.9280   -0.6520 h1        1 MOL      0.128066
     48 N5         -4.7510    4.7260    0.4030 n         1 MOL     -0.489963
     49 C16        -3.2760    4.6710    0.1490 c3        1 MOL      0.070909
     50 C17        -2.5100    4.0600    1.3290 c         1 MOL      0.625313
     51 O10        -2.7130    4.4430    2.4990 o         1 MOL     -0.560079
     52 C18        -2.8400    6.1040   -0.1780 c3        1 MOL     -0.235411
     53 C19        -3.3500    6.5510   -1.5020 c         1 MOL      0.741507
     54 N6         -2.6940    6.1580   -2.5860 n         1 MOL     -0.793761
     55 O11        -4.2220    7.4120   -1.5410 o         1 MOL     -0.600830
     56 H20        -5.0960    5.4610    0.9960 hn        1 MOL      0.313170
     57 H21        -3.0060    4.0130   -0.6740 h1        1 MOL      0.003804
     58 H22        -1.7550    6.1880   -0.2330 hc        1 MOL      0.086893
     59 H23        -3.0820    6.8210    0.5980 hc        1 MOL      0.086893
     60 H24        -1.9090    5.5370   -2.5360 hn        1 MOL      0.363780
     61 H25        -3.1010    6.3670   -3.4880 hn        1 MOL      0.363780
     62 N7         -1.6590    3.0180    1.1120 n         1 MOL     -0.459222
     63 C20        -0.9300    2.2970    2.0820 c3        1 MOL     -0.007510
     64 C21        -1.7140    1.0390    2.6220 c         1 MOL      0.562018
     65 O12        -2.5350    0.5170    1.8580 o         1 MOL     -0.534313
     66 H26        -1.6810    2.7220    0.1490 hn        1 MOL      0.262898
     67 H27        -0.6030    2.9270    2.9180 h1        1 MOL      0.111553
     68 H28        -0.0430    1.8360    1.6760 h1        1 MOL      0.111553
     69 N8         -1.4550    0.4550    3.8100 n         1 MOL     -0.428024
     70 C22        -0.5270    0.8890    4.8520 c3        1 MOL     -0.229556
     71 C23         0.9050    0.4400    4.5420 c         1 MOL      0.443588
     72 O13         1.8330    0.9650    5.1540 o         1 MOL     -0.528431
     73 C24        -0.9350    0.2850    6.2510 c3        1 MOL      0.365792
     74 C25        -2.2460    0.8290    6.8140 c3        1 MOL     -0.305965
     75 O14        -1.0930   -1.1270    6.1140 oh        1 MOL     -0.604324
     76 H29        -1.9630   -0.3980    4.0280 hn        1 MOL      0.344739
     77 H30        -0.5800    1.9740    4.9450 h1        1 MOL      0.156432
     78 H31        -0.1440    0.5200    6.9590 h1        1 MOL      0.038055
     79 H32        -1.5740   -1.3970    6.9090 ho        1 MOL      0.396098
     80 H33        -2.3600    0.1960    7.6910 hc        1 MOL      0.069945
     81 H34        -2.0920    1.8160    7.2460 hc        1 MOL      0.069945
     82 H35        -3.1410    0.5520    6.2400 hc        1 MOL      0.069945
     83 N9          1.0220   -0.5700    3.7110 n         1 MOL     -0.310762
     84 C26         2.2570   -1.1570    3.2090 c3        1 MOL     -0.005872
     85 C27         2.3120   -1.2640    1.6490 c         1 MOL      0.599274
     86 O15         1.3170   -1.6880    1.1070 o         1 MOL     -0.583824
     87 C28         2.5670   -2.6100    3.8550 c3        1 MOL     -0.061483
     88 C29         2.7370   -2.4130    5.3550 c3        1 MOL      0.184557
     89 C30         3.8530   -3.1270    3.2210 c3        1 MOL     -0.205657
     90 C31         3.1600   -3.6470    6.1340 c3        1 MOL     -0.268254
     91 H36         0.2250   -0.9960    3.2600 hn        1 MOL      0.249976
     92 H37         3.0550   -0.5060    3.5620 h1        1 MOL      0.106290
     93 H38         1.7580   -3.3230    3.6790 hc        1 MOL      0.042594
     94 H39         1.7980   -2.1000    5.8180 hc        1 MOL     -0.028237
     95 H40         3.3250   -1.5230    5.5690 hc        1 MOL     -0.028237
     96 H41         4.5740   -2.3020    3.2060 hc        1 MOL      0.086009
     97 H42         4.3020   -3.9640    3.7550 hc        1 MOL      0.086009
     98 H43         3.7060   -3.3920    2.1680 hc        1 MOL      0.086009
     99 H44         3.1710   -3.5340    7.2220 hc        1 MOL      0.054292
    100 H45         2.4170   -4.4230    5.9150 hc        1 MOL      0.054292
    101 H46         4.1930   -3.9200    5.9200 hc        1 MOL      0.054292
    102 N10         3.3290   -0.7590    0.8930 n         1 MOL     -0.540983
    103 C32         4.5260   -0.0400    1.4530 c3        1 MOL      0.263403
    104 C33         5.6700   -0.0780    0.4330 c         1 MOL      0.408142
    105 O16         5.4820   -0.5880   -0.6570 o         1 MOL     -0.491797
    106 C34         4.1420    1.4630    1.7680 c3        1 MOL     -0.010715
    107 C35         3.2340    2.2270    0.8420 c         1 MOL      0.661205
    108 O17         3.1860    1.9720   -0.3530 o         1 MOL     -0.719436
    109 O18         2.5130    3.0940    1.3720 o         1 MOL     -0.719436
    110 H47         3.2080   -0.7900   -0.1000 hn        1 MOL      0.336624
    111 H48         4.9380   -0.5160    2.3350 h1        1 MOL      0.001184
    112 H49         5.0510    2.0230    1.9560 hc        1 MOL     -0.044913
    113 H50         3.7040    1.4240    2.7630 hc        1 MOL     -0.044913
    114 N11         6.8210    0.5340    0.7740 n         1 MOL     -0.536565
    115 C36         7.8440    0.9990   -0.0900 c3        1 MOL      0.537092
    116 C37         9.2390    0.4600    0.3350 c         1 MOL      0.132687
    117 O19         9.6630    0.5290    1.5170 o         1 MOL     -0.490100
    118 C38         7.8740    2.5610   -0.1940 c3        1 MOL     -0.214251
    119 C39         8.6890    3.2430   -1.3570 ca        1 MOL      0.025918
    120 C40        10.0870    3.2880   -1.3300 ca        1 MOL     -0.114438
    121 C41         7.9950    3.7470   -2.4660 ca        1 MOL     -0.114438
    122 C42        10.8090    3.9710   -2.3430 ca        1 MOL     -0.158331
    123 C43         8.6880    4.3150   -3.5170 ca        1 MOL     -0.158331
    124 C44        10.0750    4.4020   -3.4710 ca        1 MOL     -0.074916
    125 H51         6.8510    0.9560    1.6960 hn        1 MOL      0.278257
    126 H52         7.5320    0.6490   -1.0700 h1        1 MOL      0.000890
    127 H53         8.1820    2.9460    0.7730 hc        1 MOL      0.069879
    128 H54         6.8290    2.8510   -0.3330 hc        1 MOL      0.069879
    129 H55        10.6100    2.9580   -0.4500 ha        1 MOL      0.131408
    130 H56         6.9350    3.5800   -2.5980 ha        1 MOL      0.131408
    131 H57        11.8800    4.0680   -2.3570 ha        1 MOL      0.115474
    132 H58         8.1510    4.7010   -4.3700 ha        1 MOL      0.115474
    133 H59        10.5550    5.0450   -4.1940 ha        1 MOL      0.073454
    134 N12        10.1180    0.0240   -0.6160 n         1 MOL      0.046049
    135 C45         9.9960   -0.0010   -2.0840 c3        1 MOL      0.087997
    136 C46         8.9700   -1.0250   -2.5570 c         1 MOL      0.442726
    137 O20         8.2350   -0.7430   -3.5230 o         1 MOL     -0.559122
    138 C47        11.4540   -0.2630   -2.6840 c3        1 MOL     -0.171928
    139 C48        12.3920    0.0480   -1.5020 c3        1 MOL     -0.087079
    140 C49        11.5620   -0.4750   -0.3000 c3        1 MOL     -0.171150
    141 H60         9.5970    0.9720   -2.4120 h1        1 MOL      0.035951
    142 H61        11.5320   -1.3300   -2.8910 hc        1 MOL      0.069397
    143 H62        11.6240    0.3890   -3.5380 hc        1 MOL      0.069397
    144 H63        13.2660   -0.5910   -1.5000 hc        1 MOL      0.043867
    145 H64        12.6410    1.0970   -1.3460 hc        1 MOL      0.043867
    146 H65        11.5930   -1.5590   -0.3900 h1        1 MOL      0.108584
    147 H66        11.9530   -0.1010    0.6500 h1        1 MOL      0.108584
    148 N13         8.8290   -2.1400   -1.8210 n         1 MOL     -0.436622
    149 C50         7.7830   -3.1440   -2.0510 c3        1 MOL      0.218428
    150 C51         8.0010   -4.0070   -3.2660 c         1 MOL      0.435968
    151 O21         8.8100   -4.9460   -3.2050 o         1 MOL     -0.595878
    152 C52         7.7020   -4.0380   -0.7740 c3        1 MOL     -0.065091
    153 C53         7.1540   -3.3070    0.4540 c3        1 MOL     -0.021015
    154 C54         7.2160   -4.1420    1.7120 c         1 MOL      0.651598
    155 O22         6.8600   -5.3770    1.6110 o         1 MOL     -0.726692
    156 O23         7.5450   -3.6020    2.8160 o         1 MOL     -0.726692
    157 H67         9.3600   -2.2830   -0.9660 hn        1 MOL      0.291683
    158 H68         6.7480   -2.8080   -2.0540 h1        1 MOL      0.088419
    159 H69         8.6880   -4.3520   -0.4460 hc        1 MOL      0.008725
    160 H70         6.9940   -4.8270   -1.0450 hc        1 MOL      0.008725
    161 H71         6.1170   -3.0780    0.2280 hc        1 MOL     -0.038031
    162 H72         7.6940   -2.3690    0.5790 hc        1 MOL     -0.038031
    163 N14         7.2680   -3.9000   -4.3400 n         1 MOL     -0.328911
    164 C55         6.3210   -2.7990   -4.7540 c3        1 MOL     -0.156853
    165 H73         6.8670   -2.0420   -5.3170 h1        1 MOL      0.086269
    166 H74         5.5300   -3.2140   -5.3780 h1        1 MOL      0.086269
    167 H75         5.8830   -2.3430   -3.8660 h1        1 MOL      0.086269
    168 H76         7.3840   -4.6790   -4.9670 hn        1 MOL      0.255963
    169 Ca1        -5.4690    0.7470   -2.2400 Ca        1 MOL      1.747208
    170 O24        -3.9050    1.7480   -4.1480 oh        1 MOL     -0.822068
    171 H77        -2.9950    1.4490   -4.0960 ho        1 MOL      0.411324
    172 H78        -3.8850    2.4750   -4.7710 ho        1 MOL      0.411324
    173 O25        -3.0480    0.5630   -1.0780 oh        1 MOL     -0.822068
    174 H79        -3.0290    0.6210   -0.1170 ho        1 MOL      0.411324
    175 H80        -2.1620    0.2950   -1.3180 ho        1 MOL      0.411324
    176 O26        -6.8000    2.8920   -3.0790 oh        1 MOL     -0.822068
    177 H81        -7.7220    2.9420   -2.8190 ho        1 MOL      0.411324
    178 H82        -6.6260    3.7190   -3.5330 ho        1 MOL      0.411324
    179 O27        -3.9880   -1.2310   -3.5360 oh        1 MOL     -0.822068
    180 H83        -3.7280   -1.1920   -4.4620 ho        1 MOL      0.411324
    181 H84        -3.3080   -1.7470   -3.1110 ho        1 MOL      0.411324
@<TRIPOS>BOND
     1    1    2 1   
     2    1    4 1   
     3    1    5 1   
     4    1    6 1   
     5    2    3 2   
     6    2    7 1   
     7    7    8 1   
     8    7   15 1   
     9    8    9 1   
    10    8   11 1   
    11    8   16 1   
    12    9   10 2   
    13    9   19 1   
    14   11   12 1   
    15   11   17 1   
    16   11   18 1   
    17   12   13 1   
    18   12   14 1   
    19   19   20 1   
    20   19   24 1   
    21   20   21 1   
    22   20   23 1   
    23   20   25 1   
    24   21   22 2   
    25   21   29 1   
    26   23   26 1   
    27   23   27 1   
    28   23   28 1   
    29   29   30 1   
    30   29   37 1   
    31   30   31 1   
    32   30   33 1   
    33   30   38 1   
    34   31   32 2   
    35   31   41 1   
    36   33   34 1   
    37   33   39 1   
    38   33   40 1   
    39   34   35 1   
    40   34   36 1   
    41   41   42 1   
    42   41   45 1   
    43   42   43 1   
    44   42   46 1   
    45   42   47 1   
    46   43   44 2   
    47   43   48 1   
    48   48   49 1   
    49   48   56 1   
    50   49   50 1   
    51   49   52 1   
    52   49   57 1   
    53   50   51 2   
    54   50   62 1   
    55   52   53 1   
    56   52   58 1   
    57   52   59 1   
    58   53   54 1   
    59   53   55 2   
    60   54   60 1   
    61   54   61 1   
    62   62   63 1   
    63   62   66 1   
    64   63   64 1   
    65   63   67 1   
    66   63   68 1   
    67   64   65 2   
    68   64   69 1   
    69   69   70 1   
    70   69   76 1   
    71   70   71 1   
    72   70   73 1   
    73   70   77 1   
    74   71   72 2   
    75   71   83 1   
    76   73   74 1   
    77   73   75 1   
    78   73   78 1   
    79   74   80 1   
    80   74   81 1   
    81   74   82 1   
    82   75   79 1   
    83   83   84 1   
    84   83   91 1   
    85   84   85 1   
    86   84   87 1   
    87   84   92 1   
    88   85   86 2   
    89   85  102 1   
    90   87   88 1   
    91   87   89 1   
    92   87   93 1   
    93   88   90 1   
    94   88   94 1   
    95   88   95 1   
    96   89   96 1   
    97   89   97 1   
    98   89   98 1   
    99   90   99 1   
   100   90  100 1   
   101   90  101 1   
   102  102  103 1   
   103  102  110 1   
   104  103  104 1   
   105  103  106 1   
   106  103  111 1   
   107  104  105 2   
   108  104  114 1   
   109  106  107 1   
   110  106  112 1   
   111  106  113 1   
   112  107  108 1   
   113  107  109 1   
   114  114  115 1   
   115  114  125 1   
   116  115  116 1   
   117  115  118 1   
   118  115  126 1   
   119  116  117 2   
   120  116  134 1   
   121  118  119 1   
   122  118  127 1   
   123  118  128 1   
   124  119  120 ar  
   125  119  121 ar  
   126  120  122 ar  
   127  120  129 1   
   128  121  123 ar  
   129  121  130 1   
   130  122  124 ar  
   131  122  131 1   
   132  123  124 ar  
   133  123  132 1   
   134  124  133 1   
   135  134  135 1   
   136  134  140 1   
   137  135  136 1   
   138  135  138 1   
   139  135  141 1   
   140  136  137 2   
   141  136  148 1   
   142  138  139 1   
   143  138  142 1   
   144  138  143 1   
   145  139  140 1   
   146  139  144 1   
   147  139  145 1   
   148  140  146 1   
   149  140  147 1   
   150  148  149 1   
   151  148  157 1   
   152  149  150 1   
   153  149  152 1   
   154  149  158 1   
   155  150  151 2   
   156  150  163 1   
   157  152  153 1   
   158  152  159 1   
   159  152  160 1   
   160  153  154 1   
   161  153  161 1   
   162  153  162 1   
   163  154  155 1   
   164  154  156 1   
   165  163  164 1   
   166  163  168 1   
   167  164  165 1   
   168  164  166 1   
   169  164  167 1   
   170  170  171 1   
   171  170  172 1   
   172  173  174 1   
   173  173  175 1   
   174  176  177 1   
   175  176  178 1   
   176  179  180 1   
   177  179  181 1   
@<TRIPOS>SUBSTRUCTURE
     1 MOL         1 TEMP              0 ****  ****    0 ROOT
