@<TRIPOS>MOLECULE
MOL
  178   175     1     0     0
SMALL
resp


@<TRIPOS>ATOM
      1 C1          3.6990   -1.8510    4.5220 c3        1 MOL     -0.445366
      2 C2          4.6530   -0.7230    3.9940 c         1 MOL      0.677746
      3 O1          4.6980    0.4400    4.3240 o         1 MOL     -0.602989
      4 H1          3.9790   -2.1170    5.5410 hc        1 MOL      0.118240
      5 H2          2.6700   -1.4910    4.5110 hc        1 MOL      0.118240
      6 H3          3.7840   -2.7290    3.8820 hc        1 MOL      0.118240
      7 N1          5.5160   -1.2080    3.0700 n         1 MOL     -0.525945
      8 C3          6.8080   -0.5650    2.5830 c3        1 MOL      0.302139
      9 C4          6.8100   -0.5360    1.0300 c         1 MOL      0.614767
     10 O2          6.0570   -1.2360    0.3580 o         1 MOL     -0.594027
     11 C5          8.0140   -1.2910    3.2000 c3        1 MOL     -0.252395
     12 C6          8.2140   -2.8060    2.8290 c         1 MOL      0.735777
     13 O3          9.3970   -3.2840    2.7910 o         1 MOL     -0.708921
     14 O4          7.1740   -3.4750    2.5880 o         1 MOL     -0.708921
     15 H4          5.4350   -2.1850    2.8350 hn        1 MOL      0.248790
     16 H5          6.9210    0.4620    2.9220 h1        1 MOL     -0.018165
     17 H6          7.9740   -1.3980    4.2830 hc        1 MOL      0.018139
     18 H7          8.8630   -0.7300    2.8290 hc        1 MOL      0.018139
     19 N2          7.6550    0.3320    0.4890 n         1 MOL     -0.632412
     20 C7          7.3940    0.9740   -0.8570 c3        1 MOL      0.378258
     21 C8          6.0920    1.6200   -1.0560 c         1 MOL      0.458393
     22 O5          5.3940    1.8930   -0.0730 o         1 MOL     -0.549214
     23 C9          8.5200    2.0040   -1.0220 c3        1 MOL     -0.413843
     24 H8          8.2870    0.8430    1.0940 hn        1 MOL      0.341946
     25 H9          7.5380    0.2630   -1.6650 h1        1 MOL      0.035741
     26 H10         8.4400    2.5950   -1.9380 hc        1 MOL      0.100036
     27 H11         8.5590    2.5540   -0.0910 hc        1 MOL      0.100036
     28 H12         9.4680    1.4860   -1.1100 hc        1 MOL      0.100036
     29 N3          5.6250    1.8770   -2.2780 n         1 MOL     -0.597947
     30 C10         4.1580    1.8720   -2.6640 c3        1 MOL     -0.027464
     31 C11         3.5830    3.2320   -2.9950 c         1 MOL      0.790050
     32 O6          2.8100    3.4390   -3.9020 o         1 MOL     -0.566330
     33 C12         3.8860    0.9060   -3.8010 c3        1 MOL     -0.186213
     34 C13         4.5360   -0.4350   -3.4290 c         1 MOL      0.854445
     35 O7          4.0830   -1.1960   -2.5610 o         1 MOL     -0.755765
     36 O8          5.4890   -0.7930   -4.1020 o         1 MOL     -0.755765
     37 H13         6.2750    1.7070   -3.0290 hn        1 MOL      0.328073
     38 H14         3.6270    1.4510   -1.8100 h1        1 MOL      0.058925
     39 H15         4.2880    1.2590   -4.7530 hc        1 MOL      0.048861
     40 H16         2.8120    0.8140   -3.9270 hc        1 MOL      0.048861
     41 N4          4.0470    4.2310   -2.3200 n         1 MOL     -0.584041
     42 C14         3.9800    5.7140   -2.5800 c3        1 MOL      0.102729
     43 C15         2.6430    6.3750   -2.4790 c         1 MOL      0.704726
     44 O9          2.4750    7.5140   -2.8630 o         1 MOL     -0.606409
     45 H17         4.6550    3.9430   -1.5670 hn        1 MOL      0.337056
     46 H18         4.3910    6.0020   -3.5450 h1        1 MOL      0.031088
     47 H19         4.6500    6.2620   -1.9120 h1        1 MOL      0.031088
     48 N5          1.5890    5.6430   -2.0070 n         1 MOL     -0.723939
     49 C16         0.2160    6.1940   -1.7760 c3        1 MOL      0.676387
     50 C17        -0.3870    5.8250   -0.4260 c         1 MOL      0.236322
     51 O10        -0.1230    4.7750    0.1370 o         1 MOL     -0.398442
     52 C18        -0.7510    5.6950   -2.8670 c3        1 MOL     -0.328705
     53 C19        -0.4690    6.1910   -4.2750 c         1 MOL      0.558228
     54 N6         -0.6170    7.4820   -4.4960 n         1 MOL     -0.597069
     55 O11        -0.0800    5.4880   -5.1580 o         1 MOL     -0.499902
     56 H20         1.6920    4.6400   -2.0320 hn        1 MOL      0.273603
     57 H21         0.3520    7.2820   -1.8210 h1        1 MOL     -0.112230
     58 H22        -1.6860    6.1340   -2.5300 hc        1 MOL      0.089910
     59 H23        -0.8050    4.6030   -2.8370 hc        1 MOL      0.089910
     60 H24        -1.0730    8.0450   -3.7890 hn        1 MOL      0.289558
     61 H25        -0.6100    7.7810   -5.4620 hn        1 MOL      0.289558
     62 N7         -1.2220    6.7310    0.1310 n         1 MOL     -0.309655
     63 C20        -1.7510    6.5570    1.4900 c3        1 MOL     -0.438015
     64 C21        -2.9410    5.6400    1.6520 c         1 MOL      0.651762
     65 O12        -3.4370    4.9560    0.7120 o         1 MOL     -0.495155
     66 H26        -1.4250    7.5700   -0.3930 hn        1 MOL      0.272198
     67 H27        -2.0440    7.5480    1.8120 h1        1 MOL      0.190099
     68 H28        -0.9570    6.0980    2.0870 h1        1 MOL      0.190099
     69 N8         -3.6550    5.6260    2.8130 n         1 MOL     -0.353309
     70 C22        -4.9480    5.0080    3.0300 c3        1 MOL     -0.420345
     71 C23        -4.9040    3.4580    3.2880 c         1 MOL      0.671944
     72 O13        -5.9720    2.8740    3.4460 o         1 MOL     -0.565942
     73 C24        -5.7290    5.7120    4.1330 c3        1 MOL      0.635185
     74 C25        -5.2370    5.5130    5.5520 c3        1 MOL     -0.420010
     75 O14        -5.7700    7.1100    3.8770 oh        1 MOL     -0.665652
     76 H29        -3.2400    6.1660    3.5670 hn        1 MOL      0.207032
     77 H30        -5.5680    5.2250    2.1650 h1        1 MOL      0.165400
     78 H31        -6.7520    5.3520    4.0630 h1        1 MOL      0.005254
     79 H32        -4.8720    7.4380    3.8490 ho        1 MOL      0.373912
     80 H33        -4.2430    5.9070    5.7320 hc        1 MOL      0.092590
     81 H34        -5.8910    6.0660    6.2260 hc        1 MOL      0.092590
     82 H35        -5.2200    4.4670    5.8290 hc        1 MOL      0.092590
     83 N9         -3.7150    2.8240    3.3560 n         1 MOL     -0.446384
     84 C26        -3.5010    1.3830    3.4190 c3        1 MOL     -0.039242
     85 C27        -2.4880    1.1170    2.4170 c         1 MOL      0.778759
     86 O15        -1.5350    1.7850    2.2370 o         1 MOL     -0.520774
     87 C28        -3.2230    0.9270    4.8400 c3        1 MOL      0.084452
     88 C29        -4.3120    1.1980    5.9080 c3        1 MOL      0.037558
     89 C30        -2.7360   -0.4770    5.0220 c3        1 MOL     -0.009049
     90 C31        -5.6120    0.4170    5.6690 c3        1 MOL     -0.104136
     91 H36        -2.9140    3.4130    3.1990 hn        1 MOL      0.232367
     92 H37        -4.4490    0.9580    3.0770 h1        1 MOL      0.089493
     93 H38        -2.3540    1.4790    5.1930 hc        1 MOL      0.010549
     94 H39        -4.5510    2.2580    5.8420 hc        1 MOL     -0.006444
     95 H40        -3.8660    1.0920    6.9010 hc        1 MOL     -0.006444
     96 H41        -2.3570   -0.7200    6.0130 hc        1 MOL     -0.002709
     97 H42        -3.4900   -1.2230    4.7490 hc        1 MOL     -0.002709
     98 H43        -1.9930   -0.6360    4.2440 hc        1 MOL     -0.002709
     99 H44        -5.9640    0.6680    4.6610 hc        1 MOL      0.017210
    100 H45        -5.4500   -0.6620    5.7560 hc        1 MOL      0.017210
    101 H46        -6.3350    0.7010    6.4290 hc        1 MOL      0.017210
    102 N10        -2.6460   -0.0780    1.7130 n         1 MOL     -0.865608
    103 C32        -1.5290   -0.5940    0.8080 c3        1 MOL      0.488833
    104 C33        -2.1800   -1.2870   -0.4140 c         1 MOL      0.423281
    105 O16        -1.5650   -2.1770   -1.0250 o         1 MOL     -0.430516
    106 C34        -0.5480   -1.3940    1.6260 c3        1 MOL     -0.112142
    107 C35         0.7970   -1.6800    0.9910 c         1 MOL      0.773338
    108 O17         1.1010   -1.1110   -0.0300 o         1 MOL     -0.779488
    109 O18         1.5950   -2.4300    1.5700 o         1 MOL     -0.779488
    110 H47        -3.2970   -0.7340    2.1210 hn        1 MOL      0.353759
    111 H48        -0.9970    0.2630    0.3900 h1        1 MOL      0.027587
    112 H49        -1.0140   -2.3630    1.7820 hc        1 MOL     -0.006116
    113 H50        -0.4810   -0.8760    2.5840 hc        1 MOL     -0.006116
    114 N11        -3.3950   -0.8460   -0.7650 n         1 MOL     -0.611259
    115 C36        -4.2160   -1.4150   -1.8670 c3        1 MOL      0.490763
    116 C37        -4.6710   -2.8220   -1.2920 c         1 MOL      0.258336
    117 O19        -5.1210   -2.9860   -0.1350 o         1 MOL     -0.530075
    118 C38        -5.3380   -0.5230   -2.3520 c3        1 MOL     -0.274177
    119 C39        -6.0830   -1.0870   -3.6030 ca        1 MOL      0.127764
    120 C40        -7.4140   -1.5680   -3.4810 ca        1 MOL     -0.172467
    121 C41        -5.5690   -0.7880   -4.9070 ca        1 MOL     -0.172467
    122 C42        -8.2480   -1.6530   -4.6230 ca        1 MOL     -0.086888
    123 C43        -6.4430   -0.7620   -5.9860 ca        1 MOL     -0.086888
    124 C44        -7.7750   -1.2020   -5.8320 ca        1 MOL     -0.151458
    125 H51        -3.8420   -0.2200   -0.1050 hn        1 MOL      0.272531
    126 H52        -3.4880   -1.5430   -2.6690 h1        1 MOL     -0.014791
    127 H53        -4.8920    0.4530   -2.5530 hc        1 MOL      0.092991
    128 H54        -6.1080   -0.4250   -1.5810 hc        1 MOL      0.092991
    129 H55        -7.8220   -1.6760   -2.4890 ha        1 MOL      0.122458
    130 H56        -4.5350   -0.5550   -5.0780 ha        1 MOL      0.122458
    131 H57        -9.2920   -1.8910   -4.4860 ha        1 MOL      0.102602
    132 H58        -6.0340   -0.5670   -6.9680 ha        1 MOL      0.102602
    133 H59        -8.3320   -1.1970   -6.7570 ha        1 MOL      0.103366
    134 N12        -4.4720   -3.8770   -2.0860 n         1 MOL     -0.033112
    135 C45        -4.9840   -5.2040   -1.7510 c3        1 MOL     -0.145372
    136 C46        -4.0230   -6.0760   -0.8670 c         1 MOL      0.482766
    137 O20        -4.3840   -7.1640   -0.4370 o         1 MOL     -0.544729
    138 C47        -5.1420   -5.8980   -3.1480 c3        1 MOL      0.014168
    139 C48        -4.0000   -5.3510   -3.9750 c3        1 MOL     -0.086563
    140 C49        -3.9350   -3.8960   -3.4620 c3        1 MOL     -0.144657
    141 H60        -5.9320   -5.1400   -1.2320 h1        1 MOL      0.104248
    142 H61        -5.2140   -6.9680   -2.9600 hc        1 MOL      0.020888
    143 H62        -6.0370   -5.5110   -3.6340 hc        1 MOL      0.020888
    144 H63        -3.0960   -5.9040   -3.7010 hc        1 MOL      0.053767
    145 H64        -4.2540   -5.3690   -5.0360 hc        1 MOL      0.053767
    146 H65        -2.8910   -3.5760   -3.4980 h1        1 MOL      0.087488
    147 H66        -4.5470   -3.2640   -4.1130 h1        1 MOL      0.087488
    148 N13        -2.8630   -5.5370   -0.4950 n         1 MOL     -0.282208
    149 C50        -1.7630   -6.2600    0.2370 c3        1 MOL     -0.045278
    150 C51        -2.0710   -6.4910    1.6560 c         1 MOL      0.501893
    151 O21        -1.5920   -7.4700    2.1560 o         1 MOL     -0.536166
    152 C52        -0.3590   -5.6780    0.1060 c3        1 MOL      0.164862
    153 C53         0.1880   -5.3090   -1.2980 c3        1 MOL     -0.216848
    154 C54         1.4460   -4.5540   -1.2190 c         1 MOL      0.715818
    155 O22         2.2980   -4.7840   -0.3650 o         1 MOL     -0.730793
    156 O23         1.7180   -3.6280   -1.9610 o         1 MOL     -0.730793
    157 H67        -2.6630   -4.5950   -0.7640 hn        1 MOL      0.236668
    158 H68        -1.7240   -7.2830   -0.1420 h1        1 MOL      0.073614
    159 H69         0.3920   -6.3080    0.5770 hc        1 MOL     -0.002270
    160 H70        -0.4920   -4.7570    0.6680 hc        1 MOL     -0.002270
    161 H71        -0.5770   -4.7190   -1.8040 hc        1 MOL      0.023759
    162 H72         0.2040   -6.2620   -1.8330 hc        1 MOL      0.023759
    163 N14        -2.7950   -5.5790    2.3300 n         1 MOL     -0.283121
    164 C55        -2.8130   -5.5790    3.7850 c3        1 MOL     -0.269646
    165 H73        -1.8330   -5.8750    4.1600 h1        1 MOL      0.109482
    166 H74        -3.0530   -4.5780    4.1460 h1        1 MOL      0.109482
    167 H75        -3.5660   -6.2830    4.1400 h1        1 MOL      0.109482
    168 H76        -3.1200   -4.7770    1.8120 hn        1 MOL      0.237214
    169 Ca1         3.5000   -2.3690   -0.2640 Ca        1 MOL      1.742335
    170 O24         4.9940   -3.8180   -1.9420 oh        1 MOL     -0.798622
    171 H77         5.6900   -4.4660   -2.0010 ho        1 MOL      0.391956
    172 H78         5.1090   -3.2740   -2.7210 ho        1 MOL      0.391956
    173 O25         4.8770   -3.9400    1.3560 oh        1 MOL     -0.798622
    174 H79         5.7550   -3.6240    1.5620 ho        1 MOL      0.391956
    175 H80         4.7090   -4.6190    2.0070 ho        1 MOL      0.391956
    176 O26         3.5550    0.1800    0.5520 oh        1 MOL     -0.798622
    177 H81         4.2430    0.8380    0.5600 ho        1 MOL      0.391956
    178 H82         2.7580    0.6630    0.3270 ho        1 MOL      0.391956
@<TRIPOS>BOND
     1    1    2 1   
     2    1    4 1   
     3    1    5 1   
     4    1    6 1   
     5    2    3 2   
     6    2    7 1   
     7    7    8 1   
     8    7   15 1   
     9    8    9 1   
    10    8   11 1   
    11    8   16 1   
    12    9   10 2   
    13    9   19 1   
    14   11   12 1   
    15   11   17 1   
    16   11   18 1   
    17   12   13 1   
    18   12   14 1   
    19   19   20 1   
    20   19   24 1   
    21   20   21 1   
    22   20   23 1   
    23   20   25 1   
    24   21   22 2   
    25   21   29 1   
    26   23   26 1   
    27   23   27 1   
    28   23   28 1   
    29   29   30 1   
    30   29   37 1   
    31   30   31 1   
    32   30   33 1   
    33   30   38 1   
    34   31   32 2   
    35   31   41 1   
    36   33   34 1   
    37   33   39 1   
    38   33   40 1   
    39   34   35 1   
    40   34   36 1   
    41   41   42 1   
    42   41   45 1   
    43   42   43 1   
    44   42   46 1   
    45   42   47 1   
    46   43   44 2   
    47   43   48 1   
    48   48   49 1   
    49   48   56 1   
    50   49   50 1   
    51   49   52 1   
    52   49   57 1   
    53   50   51 2   
    54   50   62 1   
    55   52   53 1   
    56   52   58 1   
    57   52   59 1   
    58   53   54 1   
    59   53   55 2   
    60   54   60 1   
    61   54   61 1   
    62   62   63 1   
    63   62   66 1   
    64   63   64 1   
    65   63   67 1   
    66   63   68 1   
    67   64   65 2   
    68   64   69 1   
    69   69   70 1   
    70   69   76 1   
    71   70   71 1   
    72   70   73 1   
    73   70   77 1   
    74   71   72 2   
    75   71   83 1   
    76   73   74 1   
    77   73   75 1   
    78   73   78 1   
    79   74   80 1   
    80   74   81 1   
    81   74   82 1   
    82   75   79 1   
    83   83   84 1   
    84   83   91 1   
    85   84   85 1   
    86   84   87 1   
    87   84   92 1   
    88   85   86 2   
    89   85  102 1   
    90   87   88 1   
    91   87   89 1   
    92   87   93 1   
    93   88   90 1   
    94   88   94 1   
    95   88   95 1   
    96   89   96 1   
    97   89   97 1   
    98   89   98 1   
    99   90   99 1   
   100   90  100 1   
   101   90  101 1   
   102  102  103 1   
   103  102  110 1   
   104  103  104 1   
   105  103  106 1   
   106  103  111 1   
   107  104  105 2   
   108  104  114 1   
   109  106  107 1   
   110  106  112 1   
   111  106  113 1   
   112  107  108 1   
   113  107  109 1   
   114  114  115 1   
   115  114  125 1   
   116  115  116 1   
   117  115  118 1   
   118  115  126 1   
   119  116  117 2   
   120  116  134 1   
   121  118  119 1   
   122  118  127 1   
   123  118  128 1   
   124  119  120 ar  
   125  119  121 ar  
   126  120  122 ar  
   127  120  129 1   
   128  121  123 ar  
   129  121  130 1   
   130  122  124 ar  
   131  122  131 1   
   132  123  124 ar  
   133  123  132 1   
   134  124  133 1   
   135  134  135 1   
   136  134  140 1   
   137  135  136 1   
   138  135  138 1   
   139  135  141 1   
   140  136  137 2   
   141  136  148 1   
   142  138  139 1   
   143  138  142 1   
   144  138  143 1   
   145  139  140 1   
   146  139  144 1   
   147  139  145 1   
   148  140  146 1   
   149  140  147 1   
   150  148  149 1   
   151  148  157 1   
   152  149  150 1   
   153  149  152 1   
   154  149  158 1   
   155  150  151 2   
   156  150  163 1   
   157  152  153 1   
   158  152  159 1   
   159  152  160 1   
   160  153  154 1   
   161  153  161 1   
   162  153  162 1   
   163  154  155 1   
   164  154  156 1   
   165  163  164 1   
   166  163  168 1   
   167  164  165 1   
   168  164  166 1   
   169  164  167 1   
   170  170  171 1   
   171  170  172 1   
   172  173  174 1   
   173  173  175 1   
   174  176  177 1   
   175  176  178 1   
@<TRIPOS>SUBSTRUCTURE
     1 MOL         1 TEMP              0 ****  ****    0 ROOT
