@<TRIPOS>MOLECULE
MOL
  181   177     1     0     0
SMALL
resp


@<TRIPOS>ATOM
      1 C1         -1.3880    7.1450    1.9670 c3        1 MOL     -0.392143
      2 C2         -2.7220    7.1080    1.1740 c         1 MOL      0.690391
      3 O1         -2.8060    7.6340    0.0810 o         1 MOL     -0.565144
      4 H1         -0.9960    8.1620    1.9720 hc        1 MOL      0.095488
      5 H2         -1.5660    6.8200    2.9930 hc        1 MOL      0.095488
      6 H3         -0.6650    6.4790    1.4950 hc        1 MOL      0.095488
      7 N1         -3.8160    6.5170    1.7460 n         1 MOL     -0.603438
      8 C3         -5.1730    6.5320    1.0940 c3        1 MOL      0.285552
      9 C4         -5.2000    5.2240    0.2000 c         1 MOL      0.530382
     10 O2         -5.7650    4.2020    0.5740 o         1 MOL     -0.522857
     11 C5         -6.2300    6.5820    2.1810 c3        1 MOL     -0.336926
     12 C6         -7.6580    6.8430    1.7080 c         1 MOL      0.777420
     13 O3         -8.6390    6.1320    2.1010 o         1 MOL     -0.746658
     14 O4         -7.8860    7.8330    1.0000 o         1 MOL     -0.746658
     15 H4         -3.7090    6.0740    2.6520 hn        1 MOL      0.310508
     16 H5         -5.2640    7.4140    0.4740 h1        1 MOL      0.023940
     17 H6         -6.0450    7.3700    2.9110 hc        1 MOL      0.043643
     18 H7         -6.2180    5.6310    2.7230 hc        1 MOL      0.043643
     19 N2         -4.6330    5.2230   -0.9970 n         1 MOL     -0.695058
     20 C7         -4.6190    4.0660   -2.0140 c3        1 MOL      0.603181
     21 C8         -3.2200    3.4000   -2.3060 c         1 MOL      0.290149
     22 O5         -2.2160    4.0930   -2.2280 o         1 MOL     -0.538955
     23 C9         -5.2160    4.5670   -3.4230 c3        1 MOL     -0.206287
     24 H8         -4.0220    6.0070   -1.1920 hn        1 MOL      0.301754
     25 H9         -5.2500    3.3090   -1.5540 h1        1 MOL     -0.082319
     26 H10        -6.2220    4.9780   -3.3230 hc        1 MOL      0.049015
     27 H11        -4.6330    5.3610   -3.8740 hc        1 MOL      0.049015
     28 H12        -5.3620    3.6870   -4.0630 hc        1 MOL      0.049015
     29 N3         -3.1830    2.0930   -2.5040 n         1 MOL     -0.219370
     30 C10        -4.1830    1.2220   -3.0710 c3        1 MOL     -0.154175
     31 C11        -4.3950   -0.0480   -2.2210 c         1 MOL      0.366177
     32 O6         -3.4370   -0.5950   -1.7020 o         1 MOL     -0.490346
     33 C12        -3.8810    0.7960   -4.4440 c3        1 MOL      0.013240
     34 C13        -2.4950    0.2000   -4.7140 c         1 MOL      0.642889
     35 O7         -1.6500   -0.0710   -3.8070 o         1 MOL     -0.658374
     36 O8         -2.2330    0.2540   -5.8880 o         1 MOL     -0.658374
     37 H13        -2.2210    1.8030   -2.4590 hn        1 MOL      0.274134
     38 H14        -5.1220    1.7660   -3.0620 h1        1 MOL      0.081452
     39 H15        -3.9570    1.7180   -5.0080 hc        1 MOL     -0.006306
     40 H16        -4.5490    0.0430   -4.8610 hc        1 MOL     -0.006306
     41 N4         -5.6420   -0.6130   -2.2470 n         1 MOL     -0.168751
     42 C14        -6.0100   -1.7540   -1.4440 c3        1 MOL     -0.158175
     43 C15        -7.2730   -1.4360   -0.5490 c         1 MOL      0.722758
     44 O9         -7.8290   -0.4000   -0.7300 o         1 MOL     -0.548096
     45 H17        -6.3260   -0.0660   -2.7440 hn        1 MOL      0.219467
     46 H18        -5.2060   -2.0010   -0.7540 h1        1 MOL      0.053444
     47 H19        -6.2090   -2.5780   -2.1300 h1        1 MOL      0.053444
     48 N5         -7.7500   -2.2460    0.3330 n         1 MOL     -0.574881
     49 C16        -7.0930   -3.4850    0.7180 c3        1 MOL      0.083397
     50 C17        -6.0400   -3.3740    1.8220 c         1 MOL      0.727506
     51 O10        -6.1020   -2.4300    2.6030 o         1 MOL     -0.517268
     52 C18        -8.1160   -4.4890    1.0250 c3        1 MOL     -0.269916
     53 C19        -8.7690   -4.3500    2.3970 c         1 MOL      0.625179
     54 N6         -8.3980   -5.1670    3.2860 n         1 MOL     -0.741484
     55 O11        -9.6040   -3.4790    2.6040 o         1 MOL     -0.525064
     56 H20        -8.7300   -2.1630    0.5850 hn        1 MOL      0.336919
     57 H21        -6.5750   -3.9030   -0.1470 h1        1 MOL      0.031382
     58 H22        -7.7550   -5.5080    0.9320 hc        1 MOL      0.075206
     59 H23        -8.9450   -4.2940    0.3530 hc        1 MOL      0.075206
     60 H24        -7.7450   -5.9230    3.1360 hn        1 MOL      0.358088
     61 H25        -8.8280   -5.1640    4.2030 hn        1 MOL      0.358088
     62 N7         -4.9760   -4.1480    1.7280 n         1 MOL     -0.607935
     63 C20        -3.8250   -4.1790    2.6960 c3        1 MOL     -0.112320
     64 C21        -2.3870   -4.4050    2.1980 c         1 MOL      0.710727
     65 O12        -1.4540   -4.2680    3.0230 o         1 MOL     -0.595244
     66 H26        -4.9660   -4.7840    0.9430 hn        1 MOL      0.298013
     67 H27        -4.0270   -4.8560    3.5190 h1        1 MOL      0.109850
     68 H28        -3.8000   -3.1920    3.1510 h1        1 MOL      0.109850
     69 N8         -2.2340   -4.9370    0.9640 n         1 MOL     -0.559649
     70 C22        -0.9370   -5.3870    0.5010 c3        1 MOL     -0.095670
     71 C23         0.0470   -4.2990    0.2940 c         1 MOL      0.547237
     72 O13        -0.1100   -3.3580   -0.4430 o         1 MOL     -0.589372
     73 C24        -1.0860   -6.2350   -0.7220 c3        1 MOL      0.376441
     74 C25         0.2790   -6.7960   -1.1530 c3        1 MOL     -0.324880
     75 O14        -1.8560   -7.3190   -0.3420 oh        1 MOL     -0.626276
     76 H29        -3.0280   -5.0290    0.3460 hn        1 MOL      0.309158
     77 H30        -0.5560   -6.0120    1.3110 h1        1 MOL      0.103375
     78 H31        -1.5870   -5.7760   -1.5700 h1        1 MOL      0.046826
     79 H32        -1.2130   -8.0160   -0.1350 ho        1 MOL      0.374209
     80 H33         0.8990   -5.9720   -1.4790 hc        1 MOL      0.092698
     81 H34         0.7170   -7.3860   -0.3510 hc        1 MOL      0.092698
     82 H35         0.0850   -7.4890   -1.9760 hc        1 MOL      0.092698
     83 N9          1.1790   -4.4860    0.9060 n         1 MOL     -0.254951
     84 C26         2.2800   -3.5450    1.0250 c3        1 MOL     -0.263030
     85 C27         3.1860   -3.6630   -0.2830 c         1 MOL      0.436168
     86 O15         3.5320   -4.7890   -0.7290 o         1 MOL     -0.550433
     87 C28         3.1150   -3.8830    2.3230 c3        1 MOL      0.147865
     88 C29         4.4540   -3.0650    2.3360 c3        1 MOL     -0.067933
     89 C30         2.2190   -3.5740    3.5190 c3        1 MOL     -0.151964
     90 C31         5.3020   -2.7880    3.6380 c3        1 MOL     -0.206414
     91 H36         1.3170   -5.3520    1.4000 hn        1 MOL      0.237556
     92 H37         1.9080   -2.5200    1.0790 h1        1 MOL      0.252114
     93 H38         3.3130   -4.9630    2.3380 hc        1 MOL      0.012602
     94 H39         4.2750   -2.1050    1.8420 hc        1 MOL      0.058536
     95 H40         5.1270   -3.5850    1.6610 hc        1 MOL      0.058536
     96 H41         1.2010   -3.9650    3.5770 hc        1 MOL      0.040943
     97 H42         2.6600   -4.0260    4.4070 hc        1 MOL      0.040943
     98 H43         2.3840   -2.5080    3.6400 hc        1 MOL      0.040943
     99 H44         4.8720   -1.9490    4.1850 hc        1 MOL      0.042744
    100 H45         5.2420   -3.6820    4.2540 hc        1 MOL      0.042744
    101 H46         6.3280   -2.5750    3.3360 hc        1 MOL      0.042744
    102 N10         3.6700   -2.5100   -0.6970 n         1 MOL     -0.000311
    103 C32         4.4040   -2.4260   -1.9060 c3        1 MOL     -0.176434
    104 C33         5.6210   -1.4750   -1.9350 c         1 MOL      0.471634
    105 O16         6.4290   -1.3890   -2.9340 o         1 MOL     -0.558941
    106 C34         3.4790   -1.8570   -3.0020 c3        1 MOL      0.010031
    107 C35         2.2570   -2.6960   -3.2280 c         1 MOL      0.799087
    108 O17         1.1330   -2.1130   -3.0410 o         1 MOL     -0.724885
    109 O18         2.3040   -3.6830   -3.9530 o         1 MOL     -0.724885
    110 H47         3.2550   -1.6600   -0.3370 hn        1 MOL     -0.161721
    111 H48         4.8740   -3.3410   -2.2650 h1        1 MOL      0.131726
    112 H49         4.0130   -1.8550   -3.9480 hc        1 MOL      0.022178
    113 H50         3.2110   -0.8740   -2.6380 hc        1 MOL      0.022178
    114 N11         5.8460   -0.6450   -0.9260 n         1 MOL     -0.431934
    115 C36         6.8990    0.4120   -0.8290 c3        1 MOL      0.479470
    116 C37         6.3800    1.6610   -0.0520 c         1 MOL      0.247030
    117 O19         6.9370    1.9780    0.9980 o         1 MOL     -0.442531
    118 C38         8.1570   -0.2100   -0.2380 c3        1 MOL     -0.470993
    119 C39         9.4430    0.6420   -0.5600 ca        1 MOL      0.172086
    120 C40         9.8590    0.7590   -1.9060 ca        1 MOL     -0.179240
    121 C41        10.0510    1.3030    0.5550 ca        1 MOL     -0.179240
    122 C42        10.9170    1.6990   -2.1250 ca        1 MOL     -0.123866
    123 C43        11.3190    1.8240    0.2500 ca        1 MOL     -0.123866
    124 C44        11.6980    2.1440   -1.1080 ca        1 MOL     -0.119092
    125 H51         5.1990   -0.6600   -0.1590 hn        1 MOL      0.229469
    126 H52         7.0930    0.6890   -1.8680 h1        1 MOL     -0.006390
    127 H53         8.2940   -1.1700   -0.7300 hc        1 MOL      0.140440
    128 H54         8.0040   -0.3450    0.8350 hc        1 MOL      0.140440
    129 H55         9.2830    0.3610   -2.7260 ha        1 MOL      0.146590
    130 H56         9.6820    1.1450    1.5570 ha        1 MOL      0.146590
    131 H57        11.2580    1.9100   -3.1400 ha        1 MOL      0.095524
    132 H58        12.0010    2.1420    1.0260 ha        1 MOL      0.095524
    133 H59        12.5890    2.7060   -1.3310 ha        1 MOL      0.098829
    134 N12         5.3270    2.4470   -0.5350 n         1 MOL     -0.180037
    135 C45         4.8210    3.6600    0.1830 c3        1 MOL      0.125453
    136 C46         4.3660    3.4140    1.6730 c         1 MOL      0.162675
    137 O20         4.4140    4.3700    2.4210 o         1 MOL     -0.487010
    138 C47         3.6420    4.1760   -0.6710 c3        1 MOL     -0.032051
    139 C48         3.7380    3.4610   -2.0280 c3        1 MOL     -0.124502
    140 C49         4.5610    2.1770   -1.7200 c3        1 MOL     -0.105668
    141 H60         5.7230    4.2670    0.1960 h1        1 MOL      0.059515
    142 H61         2.7290    3.8040   -0.1970 hc        1 MOL      0.038797
    143 H62         3.6490    5.2670   -0.6870 hc        1 MOL      0.038797
    144 H63         2.8200    3.2920   -2.5780 hc        1 MOL      0.064363
    145 H64         4.3520    4.0160   -2.7410 hc        1 MOL      0.064363
    146 H65         3.8230    1.3820   -1.6070 h1        1 MOL      0.095774
    147 H66         5.1780    1.7810   -2.5250 h1        1 MOL      0.095774
    148 N13         3.9610    2.1690    2.0330 n         1 MOL      0.286706
    149 C50         3.2930    1.8600    3.3090 c3        1 MOL     -0.317574
    150 C51         4.3340    1.6340    4.3950 c         1 MOL      0.534580
    151 O21         4.0170    1.9150    5.5650 o         1 MOL     -0.569565
    152 C52         2.3710    0.6120    3.1310 c3        1 MOL      0.085946
    153 C53         1.4590    0.5750    2.0060 c3        1 MOL     -0.341834
    154 C54         2.0830    0.3110    0.6270 c         1 MOL      0.451764
    155 O22         1.3380    0.1300   -0.3540 o         1 MOL     -0.503648
    156 O23         3.3010    0.0110    0.4680 o         1 MOL     -0.503648
    157 H67         3.9250    1.4500    1.3130 hn        1 MOL      0.061248
    158 H68         2.7540    2.7310    3.6940 h1        1 MOL      0.127976
    159 H69         1.8440    0.4320    4.0670 hc        1 MOL      0.028120
    160 H70         3.0080   -0.2720    3.0790 hc        1 MOL      0.028120
    161 H71         0.9740    1.5530    1.9530 hc        1 MOL      0.106522
    162 H72         0.8160   -0.2780    2.1680 hc        1 MOL      0.106522
    163 N14         5.5710    1.2880    4.0740 n         1 MOL     -0.182547
    164 C55         6.7390    1.4840    4.9350 c3        1 MOL     -0.206733
    165 H73         7.0460    2.5290    4.8970 h1        1 MOL      0.093594
    166 H74         6.4840    1.2170    5.9600 h1        1 MOL      0.093594
    167 H75         7.5570    0.8530    4.5870 h1        1 MOL      0.093594
    168 H76         5.7640    1.2600    3.0760 hn        1 MOL      0.140818
    169 Ca1        -0.7470   -1.0420   -1.5610 Ca        1 MOL      1.655557
    170 O24        -1.1060    1.4580   -0.5780 oh        1 MOL     -0.828360
    171 H77        -0.3540    1.8800   -0.1600 ho        1 MOL      0.399090
    172 H78        -1.8650    1.8040   -0.1130 ho        1 MOL      0.399090
    173 O25        -1.7980   -3.1610   -2.8360 oh        1 MOL     -0.828360
    174 H79        -2.7340   -3.2490   -2.9930 ho        1 MOL      0.399090
    175 H80        -1.3940   -3.8670   -3.3270 ho        1 MOL      0.399090
    176 O26         1.0910    1.3100   -2.8780 oh        1 MOL     -0.828360
    177 H81         1.3590    1.1300   -1.9750 ho        1 MOL      0.399090
    178 H82         0.5180    2.0810   -2.8020 ho        1 MOL      0.399090
    179 O27        -1.9760   -1.0150    0.8550 oh        1 MOL     -0.828360
    180 H83        -1.7390   -0.8920    1.7780 ho        1 MOL      0.399090
    181 H84        -2.9380   -1.0010    0.8580 ho        1 MOL      0.399090
@<TRIPOS>BOND
     1    1    2 1   
     2    1    4 1   
     3    1    5 1   
     4    1    6 1   
     5    2    3 2   
     6    2    7 1   
     7    7    8 1   
     8    7   15 1   
     9    8    9 1   
    10    8   11 1   
    11    8   16 1   
    12    9   10 2   
    13    9   19 1   
    14   11   12 1   
    15   11   17 1   
    16   11   18 1   
    17   12   13 1   
    18   12   14 1   
    19   19   20 1   
    20   19   24 1   
    21   20   21 1   
    22   20   23 1   
    23   20   25 1   
    24   21   22 2   
    25   21   29 1   
    26   23   26 1   
    27   23   27 1   
    28   23   28 1   
    29   29   30 1   
    30   29   37 1   
    31   30   31 1   
    32   30   33 1   
    33   30   38 1   
    34   31   32 2   
    35   31   41 1   
    36   33   34 1   
    37   33   39 1   
    38   33   40 1   
    39   34   35 1   
    40   34   36 1   
    41   41   42 1   
    42   41   45 1   
    43   42   43 1   
    44   42   46 1   
    45   42   47 1   
    46   43   44 2   
    47   43   48 1   
    48   48   49 1   
    49   48   56 1   
    50   49   50 1   
    51   49   52 1   
    52   49   57 1   
    53   50   51 2   
    54   50   62 1   
    55   52   53 1   
    56   52   58 1   
    57   52   59 1   
    58   53   54 1   
    59   53   55 2   
    60   54   60 1   
    61   54   61 1   
    62   62   63 1   
    63   62   66 1   
    64   63   64 1   
    65   63   67 1   
    66   63   68 1   
    67   64   65 2   
    68   64   69 1   
    69   69   70 1   
    70   69   76 1   
    71   70   71 1   
    72   70   73 1   
    73   70   77 1   
    74   71   72 2   
    75   71   83 1   
    76   73   74 1   
    77   73   75 1   
    78   73   78 1   
    79   74   80 1   
    80   74   81 1   
    81   74   82 1   
    82   75   79 1   
    83   83   84 1   
    84   83   91 1   
    85   84   85 1   
    86   84   87 1   
    87   84   92 1   
    88   85   86 2   
    89   85  102 1   
    90   87   88 1   
    91   87   89 1   
    92   87   93 1   
    93   88   90 1   
    94   88   94 1   
    95   88   95 1   
    96   89   96 1   
    97   89   97 1   
    98   89   98 1   
    99   90   99 1   
   100   90  100 1   
   101   90  101 1   
   102  102  103 1   
   103  102  110 1   
   104  103  104 1   
   105  103  106 1   
   106  103  111 1   
   107  104  105 2   
   108  104  114 1   
   109  106  107 1   
   110  106  112 1   
   111  106  113 1   
   112  107  108 1   
   113  107  109 1   
   114  114  115 1   
   115  114  125 1   
   116  115  116 1   
   117  115  118 1   
   118  115  126 1   
   119  116  117 2   
   120  116  134 1   
   121  118  119 1   
   122  118  127 1   
   123  118  128 1   
   124  119  120 ar  
   125  119  121 ar  
   126  120  122 ar  
   127  120  129 1   
   128  121  123 ar  
   129  121  130 1   
   130  122  124 ar  
   131  122  131 1   
   132  123  124 ar  
   133  123  132 1   
   134  124  133 1   
   135  134  135 1   
   136  134  140 1   
   137  135  136 1   
   138  135  138 1   
   139  135  141 1   
   140  136  137 2   
   141  136  148 1   
   142  138  139 1   
   143  138  142 1   
   144  138  143 1   
   145  139  140 1   
   146  139  144 1   
   147  139  145 1   
   148  140  146 1   
   149  140  147 1   
   150  148  149 1   
   151  148  157 1   
   152  149  150 1   
   153  149  152 1   
   154  149  158 1   
   155  150  151 2   
   156  150  163 1   
   157  152  153 1   
   158  152  159 1   
   159  152  160 1   
   160  153  154 1   
   161  153  161 1   
   162  153  162 1   
   163  154  155 1   
   164  154  156 1   
   165  163  164 1   
   166  163  168 1   
   167  164  165 1   
   168  164  166 1   
   169  164  167 1   
   170  170  171 1   
   171  170  172 1   
   172  173  174 1   
   173  173  175 1   
   174  176  177 1   
   175  176  178 1   
   176  179  180 1   
   177  179  181 1   
@<TRIPOS>SUBSTRUCTURE
     1 MOL         1 TEMP              0 ****  ****    0 ROOT
