@<TRIPOS>MOLECULE
MOL
  178   175     1     0     0
SMALL
resp


@<TRIPOS>ATOM
      1 C1          4.5720   -1.5880    2.2840 c3        1 MOL     -0.441829
      2 C2          5.9330   -0.8430    2.1320 c         1 MOL      0.580170
      3 O1          6.0350    0.1590    1.4080 o         1 MOL     -0.529821
      4 H1          4.5340   -2.4190    1.5800 hc        1 MOL      0.133606
      5 H2          4.4760   -1.9670    3.3000 hc        1 MOL      0.133606
      6 H3          3.7550   -0.8980    2.0740 hc        1 MOL      0.133606
      7 N1          7.0130   -1.3010    2.8030 n         1 MOL     -0.433591
      8 C3          8.3560   -0.8300    2.4990 c3        1 MOL      0.081284
      9 C4          8.7270   -1.2790    1.0710 c         1 MOL      0.513869
     10 O2          8.9370   -2.4950    0.8490 o         1 MOL     -0.531468
     11 C5          9.3320   -1.4550    3.5540 c3        1 MOL     -0.294134
     12 C6         10.7910   -0.9930    3.5030 c         1 MOL      0.788898
     13 O3         11.0770    0.1210    2.9720 o         1 MOL     -0.747179
     14 O4         11.6920   -1.6180    4.0890 o         1 MOL     -0.747179
     15 H4          6.9470   -2.0460    3.4760 hn        1 MOL      0.289494
     16 H5          8.4340    0.2560    2.6130 h1        1 MOL      0.051457
     17 H6          9.3190   -2.5390    3.5840 hc        1 MOL      0.052825
     18 H7          8.9970   -1.2460    4.5680 hc        1 MOL      0.052825
     19 N2          8.8420   -0.3710    0.0820 n         1 MOL     -0.524737
     20 C7          8.8640   -0.7030   -1.3340 c3        1 MOL      0.416455
     21 C8          7.5550   -1.3580   -1.9150 c         1 MOL      0.249316
     22 O5          7.6290   -1.9730   -2.9630 o         1 MOL     -0.523229
     23 C9          9.2580    0.5990   -2.0650 c3        1 MOL     -0.431842
     24 H8          8.7310    0.6070    0.3080 hn        1 MOL      0.292634
     25 H9          9.7050   -1.3770   -1.5340 h1        1 MOL      0.035505
     26 H10        10.3450    0.6390   -1.9890 hc        1 MOL      0.105890
     27 H11         9.1290    0.4860   -3.1410 hc        1 MOL      0.105890
     28 H12         8.8340    1.4690   -1.5660 hc        1 MOL      0.105890
     29 N3          6.4000   -1.3120   -1.2050 n         1 MOL      0.011471
     30 C10         5.1020   -1.6440   -1.7280 c3        1 MOL     -0.015178
     31 C11         4.6030   -0.7920   -2.9820 c         1 MOL      0.688418
     32 O6          3.7800   -1.1500   -3.8250 o         1 MOL     -0.529895
     33 C12         4.9170   -3.2000   -1.9110 c3        1 MOL     -0.041124
     34 C13         3.4770   -3.7040   -1.5580 c         1 MOL      0.684363
     35 O7          3.1100   -4.7940   -2.0810 o         1 MOL     -0.763880
     36 O8          2.6770   -3.0290   -0.8870 o         1 MOL     -0.763880
     37 H13         6.4410   -0.8070   -0.3300 hn        1 MOL     -0.032517
     38 H14         4.4490   -1.3310   -0.9120 h1        1 MOL      0.057080
     39 H15         5.6050   -3.6660   -1.2000 hc        1 MOL      0.013778
     40 H16         5.1350   -3.5320   -2.9270 hc        1 MOL      0.013778
     41 N4          5.0220    0.5070   -3.0310 n         1 MOL     -0.606993
     42 C14         4.7980    1.4220   -4.1430 c3        1 MOL     -0.110104
     43 C15         3.5140    2.3270   -4.0050 c         1 MOL      0.632471
     44 O9          3.5030    3.3780   -4.6240 o         1 MOL     -0.618583
     45 H17         5.7210    0.8910   -2.4110 hn        1 MOL      0.339425
     46 H18         4.7160    0.8220   -5.0460 h1        1 MOL      0.095217
     47 H19         5.6950    2.0380   -4.1020 h1        1 MOL      0.095217
     48 N5          2.4820    1.7910   -3.4110 n         1 MOL     -0.396032
     49 C16         1.2560    2.5040   -3.3040 c3        1 MOL      0.001539
     50 C17         1.4380    3.7260   -2.3390 c         1 MOL      0.515486
     51 O10         1.8010    3.5780   -1.1560 o         1 MOL     -0.529968
     52 C18         0.1590    1.4440   -2.9910 c3        1 MOL     -0.268062
     53 C19        -1.1980    2.0510   -3.4400 c         1 MOL      0.569471
     54 N6         -1.8220    2.8120   -2.6080 n         1 MOL     -0.710851
     55 O11        -1.6680    1.8120   -4.5530 o         1 MOL     -0.588853
     56 H20         2.7000    0.9140   -2.9680 hn        1 MOL      0.271638
     57 H21         1.1180    2.9570   -4.2780 h1        1 MOL      0.089880
     58 H22         0.0260    1.1920   -1.9410 hc        1 MOL      0.168543
     59 H23         0.3990    0.5500   -3.5590 hc        1 MOL      0.168543
     60 H24        -1.5240    3.0270   -1.6690 hn        1 MOL      0.332531
     61 H25        -2.7030    3.2010   -2.9220 hn        1 MOL      0.332531
     62 N7          1.0660    4.9710   -2.7560 n         1 MOL     -0.302093
     63 C20         1.1180    6.2680   -1.9960 c3        1 MOL     -0.222731
     64 C21        -0.0880    6.4420   -1.1210 c         1 MOL      0.647011
     65 O12        -1.1940    6.1200   -1.5060 o         1 MOL     -0.524108
     66 H26         0.6230    5.0460   -3.6550 hn        1 MOL      0.260123
     67 H27         1.2310    7.0800   -2.7120 h1        1 MOL      0.110116
     68 H28         1.9820    6.2490   -1.3240 h1        1 MOL      0.110116
     69 N8          0.1010    6.9820    0.1150 n         1 MOL     -0.420144
     70 C22        -0.9750    7.2810    1.0530 c3        1 MOL     -0.427112
     71 C23        -1.7000    6.0960    1.7670 c         1 MOL      0.480768
     72 O13        -2.7400    6.2170    2.3610 o         1 MOL     -0.561432
     73 C24        -0.4580    8.2690    2.1100 c3        1 MOL      0.562809
     74 C25         0.5870    7.8190    3.1430 c3        1 MOL     -0.258468
     75 O14         0.0390    9.3460    1.4780 oh        1 MOL     -0.636910
     76 H29         1.0500    7.2630    0.3260 hn        1 MOL      0.254198
     77 H30        -1.7020    7.8250    0.4640 h1        1 MOL      0.213341
     78 H31        -1.2830    8.6780    2.6850 h1        1 MOL      0.012963
     79 H32         0.9470    9.1380    1.2170 ho        1 MOL      0.371401
     80 H33         0.9610    8.7480    3.5860 hc        1 MOL      0.049916
     81 H34         0.0560    7.1130    3.7760 hc        1 MOL      0.049916
     82 H35         1.3860    7.3140    2.6140 hc        1 MOL      0.049916
     83 N9         -1.1350    4.9310    1.6050 n         1 MOL     -0.046556
     84 C26        -1.6540    3.6560    2.1590 c3        1 MOL     -0.273679
     85 C27        -1.4000    2.5710    1.0680 c         1 MOL      0.538342
     86 O15        -0.8330    2.8850   -0.0020 o         1 MOL     -0.454164
     87 C28        -0.8520    3.4380    3.4380 c3        1 MOL      0.437156
     88 C29         0.6150    3.7980    3.2860 c3        1 MOL     -0.156518
     89 C30        -1.6450    4.0350    4.6110 c3        1 MOL     -0.423747
     90 C31         1.3770    3.1560    4.4970 c3        1 MOL     -0.154778
     91 H36        -0.1990    4.9240    1.2250 hn        1 MOL      0.137519
     92 H37        -2.7230    3.7140    2.3790 h1        1 MOL      0.135801
     93 H38        -0.8550    2.3630    3.6080 hc        1 MOL     -0.064516
     94 H39         0.8200    4.8620    3.3590 hc        1 MOL      0.084969
     95 H40         0.9080    3.3040    2.3580 hc        1 MOL      0.084969
     96 H41        -1.9010    5.0870    4.5030 hc        1 MOL      0.091524
     97 H42        -2.6150    3.5620    4.7500 hc        1 MOL      0.091524
     98 H43        -1.0080    3.8360    5.4810 hc        1 MOL      0.091524
     99 H44         1.0280    2.1310    4.6230 hc        1 MOL      0.038924
    100 H45         2.4580    3.1670    4.3950 hc        1 MOL      0.038924
    101 H46         1.2050    3.6260    5.4670 hc        1 MOL      0.038924
    102 N10        -1.9910    1.3950    1.2520 n         1 MOL     -0.656807
    103 C32        -1.8600    0.2720    0.3680 c3        1 MOL      0.512245
    104 C33        -3.2760   -0.2760   -0.1090 c         1 MOL      0.367528
    105 O16        -3.5840   -1.5040   -0.0710 o         1 MOL     -0.452719
    106 C34        -1.1360   -0.8300    1.1630 c3        1 MOL     -0.264124
    107 C35        -0.7830   -2.0660    0.3610 c         1 MOL      0.732507
    108 O17        -0.5970   -2.0520   -0.8600 o         1 MOL     -0.750033
    109 O18        -0.3910   -3.0880    0.9490 o         1 MOL     -0.750033
    110 H47        -2.6460    1.3100    2.0100 hn        1 MOL      0.320142
    111 H48        -1.3070    0.5520   -0.5250 h1        1 MOL     -0.103066
    112 H49        -1.6360   -1.1110    2.0930 hc        1 MOL      0.073563
    113 H50        -0.1500   -0.4220    1.4160 hc        1 MOL      0.073563
    114 N11        -4.1710    0.6910   -0.3700 n         1 MOL     -0.384304
    115 C36        -5.5400    0.3280   -0.7750 c3        1 MOL      0.034623
    116 C37        -6.2290   -0.5780    0.2760 c         1 MOL      0.409905
    117 O19        -6.2490   -0.3240    1.4480 o         1 MOL     -0.525757
    118 C38        -6.2780    1.6610   -0.9250 c3        1 MOL     -0.163154
    119 C39        -7.6820    1.5850   -1.4670 ca        1 MOL      0.055144
    120 C40        -7.8920    1.3460   -2.8050 ca        1 MOL     -0.127147
    121 C41        -8.7910    1.7010   -0.5860 ca        1 MOL     -0.127147
    122 C42        -9.1820    1.1130   -3.2430 ca        1 MOL     -0.134266
    123 C43       -10.0650    1.4870   -1.0480 ca        1 MOL     -0.134266
    124 C44       -10.2090    1.1350   -2.3470 ca        1 MOL     -0.073442
    125 H51        -3.8900    1.6590   -0.3580 hn        1 MOL      0.261178
    126 H52        -5.4430   -0.2740   -1.6900 h1        1 MOL      0.113179
    127 H53        -5.7790    2.2600   -1.6770 hc        1 MOL      0.085279
    128 H54        -6.1320    2.1590    0.0370 hc        1 MOL      0.085279
    129 H55        -7.0390    1.2630   -3.4650 ha        1 MOL      0.121670
    130 H56        -8.6010    1.9290    0.4590 ha        1 MOL      0.121670
    131 H57        -9.2880    0.9500   -4.3090 ha        1 MOL      0.112148
    132 H58       -10.8780    1.4000   -0.3410 ha        1 MOL      0.112148
    133 H59       -11.1970    0.8790   -2.7000 ha        1 MOL      0.080153
    134 N12        -6.9760   -1.6030   -0.2160 n         1 MOL     -0.040416
    135 C45        -7.7480   -2.6060    0.6090 c3        1 MOL     -0.085756
    136 C46        -6.9340   -3.5940    1.4630 c         1 MOL      0.421301
    137 O20        -7.4550   -4.4210    2.2620 o         1 MOL     -0.531397
    138 C47        -8.6310   -3.4310   -0.3570 c3        1 MOL     -0.133870
    139 C48        -7.9320   -3.1740   -1.6940 c3        1 MOL      0.037988
    140 C49        -7.5060   -1.7400   -1.5920 c3        1 MOL     -0.098217
    141 H60        -8.4380   -2.1700    1.3370 h1        1 MOL      0.102970
    142 H61        -8.5500   -4.4780   -0.0710 hc        1 MOL      0.066708
    143 H62        -9.6320   -2.9960   -0.3700 hc        1 MOL      0.066708
    144 H63        -7.0780   -3.8500   -1.7740 hc        1 MOL      0.011785
    145 H64        -8.6240   -3.2920   -2.5290 hc        1 MOL      0.011785
    146 H65        -6.7660   -1.6080   -2.3780 h1        1 MOL      0.059930
    147 H66        -8.3870   -1.1150   -1.7440 h1        1 MOL      0.059930
    148 N13        -5.5860   -3.4670    1.5550 n         1 MOL     -0.110604
    149 C50        -4.8380   -4.2730    2.4820 c3        1 MOL     -0.189890
    150 C51        -4.6120   -3.5030    3.7990 c         1 MOL      0.446812
    151 O21        -4.8710   -4.1760    4.7920 o         1 MOL     -0.496737
    152 C52        -3.5230   -4.6860    1.8220 c3        1 MOL      0.400316
    153 C53        -3.5430   -5.7020    0.6630 c3        1 MOL     -0.299708
    154 C54        -2.0910   -5.7840    0.0560 c         1 MOL      0.704649
    155 O22        -1.0200   -6.0990    0.6770 o         1 MOL     -0.742339
    156 O23        -1.8730   -5.4080   -1.1520 o         1 MOL     -0.742339
    157 H67        -5.0040   -2.8850    0.9700 hn        1 MOL      0.147271
    158 H68        -5.2510   -5.2670    2.6660 h1        1 MOL      0.111064
    159 H69        -2.8460   -5.0780    2.5780 hc        1 MOL     -0.076916
    160 H70        -3.0830   -3.7630    1.4500 hc        1 MOL     -0.076916
    161 H71        -4.2580   -5.3410   -0.0890 hc        1 MOL      0.042524
    162 H72        -3.8950   -6.6340    1.1070 hc        1 MOL      0.042524
    163 N14        -4.2670   -2.1440    3.9040 n         1 MOL     -0.244145
    164 C55        -4.0120   -1.4480    5.1470 c3        1 MOL     -0.211172
    165 H73        -2.9440   -1.4670    5.3610 h1        1 MOL      0.088445
    166 H74        -4.3470   -0.4140    5.0600 h1        1 MOL      0.088445
    167 H75        -4.5530   -1.9380    5.9560 h1        1 MOL      0.088445
    168 H76        -4.4810   -1.5360    3.1280 hn        1 MOL      0.226920
    169 Ca1         0.6240   -4.5550   -0.8730 Ca        1 MOL      1.805455
    170 O24         2.1710   -5.1990    1.1930 oh        1 MOL     -0.838209
    171 H77         1.9680   -5.6740    1.9890 ho        1 MOL      0.409668
    172 H78         3.1280   -5.1740    1.1670 ho        1 MOL      0.409668
    173 O25         0.8100   -6.9660   -1.9610 oh        1 MOL     -0.838209
    174 H79         1.7120   -7.2770   -2.0120 ho        1 MOL      0.409668
    175 H80         0.4070   -7.2660   -2.7720 ho        1 MOL      0.409668
    176 O26         0.1710   -3.9340   -3.3960 oh        1 MOL     -0.838209
    177 H81        -0.1350   -4.4310   -4.1500 ho        1 MOL      0.409668
    178 H82         0.1610   -3.0160   -3.6960 ho        1 MOL      0.409668
@<TRIPOS>BOND
     1    1    2 1   
     2    1    4 1   
     3    1    5 1   
     4    1    6 1   
     5    2    3 2   
     6    2    7 1   
     7    7    8 1   
     8    7   15 1   
     9    8    9 1   
    10    8   11 1   
    11    8   16 1   
    12    9   10 2   
    13    9   19 1   
    14   11   12 1   
    15   11   17 1   
    16   11   18 1   
    17   12   13 1   
    18   12   14 1   
    19   19   20 1   
    20   19   24 1   
    21   20   21 1   
    22   20   23 1   
    23   20   25 1   
    24   21   22 2   
    25   21   29 1   
    26   23   26 1   
    27   23   27 1   
    28   23   28 1   
    29   29   30 1   
    30   29   37 1   
    31   30   31 1   
    32   30   33 1   
    33   30   38 1   
    34   31   32 2   
    35   31   41 1   
    36   33   34 1   
    37   33   39 1   
    38   33   40 1   
    39   34   35 1   
    40   34   36 1   
    41   41   42 1   
    42   41   45 1   
    43   42   43 1   
    44   42   46 1   
    45   42   47 1   
    46   43   44 2   
    47   43   48 1   
    48   48   49 1   
    49   48   56 1   
    50   49   50 1   
    51   49   52 1   
    52   49   57 1   
    53   50   51 2   
    54   50   62 1   
    55   52   53 1   
    56   52   58 1   
    57   52   59 1   
    58   53   54 1   
    59   53   55 2   
    60   54   60 1   
    61   54   61 1   
    62   62   63 1   
    63   62   66 1   
    64   63   64 1   
    65   63   67 1   
    66   63   68 1   
    67   64   65 2   
    68   64   69 1   
    69   69   70 1   
    70   69   76 1   
    71   70   71 1   
    72   70   73 1   
    73   70   77 1   
    74   71   72 2   
    75   71   83 1   
    76   73   74 1   
    77   73   75 1   
    78   73   78 1   
    79   74   80 1   
    80   74   81 1   
    81   74   82 1   
    82   75   79 1   
    83   83   84 1   
    84   83   91 1   
    85   84   85 1   
    86   84   87 1   
    87   84   92 1   
    88   85   86 2   
    89   85  102 1   
    90   87   88 1   
    91   87   89 1   
    92   87   93 1   
    93   88   90 1   
    94   88   94 1   
    95   88   95 1   
    96   89   96 1   
    97   89   97 1   
    98   89   98 1   
    99   90   99 1   
   100   90  100 1   
   101   90  101 1   
   102  102  103 1   
   103  102  110 1   
   104  103  104 1   
   105  103  106 1   
   106  103  111 1   
   107  104  105 2   
   108  104  114 1   
   109  106  107 1   
   110  106  112 1   
   111  106  113 1   
   112  107  108 1   
   113  107  109 1   
   114  114  115 1   
   115  114  125 1   
   116  115  116 1   
   117  115  118 1   
   118  115  126 1   
   119  116  117 2   
   120  116  134 1   
   121  118  119 1   
   122  118  127 1   
   123  118  128 1   
   124  119  120 ar  
   125  119  121 ar  
   126  120  122 ar  
   127  120  129 1   
   128  121  123 ar  
   129  121  130 1   
   130  122  124 ar  
   131  122  131 1   
   132  123  124 ar  
   133  123  132 1   
   134  124  133 1   
   135  134  135 1   
   136  134  140 1   
   137  135  136 1   
   138  135  138 1   
   139  135  141 1   
   140  136  137 2   
   141  136  148 1   
   142  138  139 1   
   143  138  142 1   
   144  138  143 1   
   145  139  140 1   
   146  139  144 1   
   147  139  145 1   
   148  140  146 1   
   149  140  147 1   
   150  148  149 1   
   151  148  157 1   
   152  149  150 1   
   153  149  152 1   
   154  149  158 1   
   155  150  151 2   
   156  150  163 1   
   157  152  153 1   
   158  152  159 1   
   159  152  160 1   
   160  153  154 1   
   161  153  161 1   
   162  153  162 1   
   163  154  155 1   
   164  154  156 1   
   165  163  164 1   
   166  163  168 1   
   167  164  165 1   
   168  164  166 1   
   169  164  167 1   
   170  170  171 1   
   171  170  172 1   
   172  173  174 1   
   173  173  175 1   
   174  176  177 1   
   175  176  178 1   
@<TRIPOS>SUBSTRUCTURE
     1 MOL         1 TEMP              0 ****  ****    0 ROOT
