@<TRIPOS>MOLECULE
MOL
  192   187     1     0     0
SMALL
resp


@<TRIPOS>ATOM
      1 C1         -6.6490   -2.5730    5.1370 c3        1 MOL     -0.215031
      2 C2         -6.0130   -1.9550    3.8580 c         1 MOL      0.794059
      3 O1         -5.3530   -2.7400    3.1640 o         1 MOL     -0.619815
      4 H1         -5.8810   -2.6950    5.9010 hc        1 MOL      0.054475
      5 H2         -7.4300   -1.9110    5.5110 hc        1 MOL      0.054475
      6 H3         -7.0790   -3.5450    4.8970 hc        1 MOL      0.054475
      7 N1         -5.9930   -0.6620    3.5230 n         1 MOL     -0.765238
      8 C3         -5.4810   -0.1670    2.2000 c3        1 MOL      0.477369
      9 C4         -3.9790   -0.2630    1.9240 c         1 MOL     -0.013680
     10 O2         -3.5000    0.4180    0.9680 o         1 MOL     -0.204045
     11 C5         -5.9630    1.2570    1.8640 c3        1 MOL     -0.069644
     12 C6         -7.4390    1.5870    2.1930 c         1 MOL      0.542331
     13 O3         -8.1550    1.0670    3.1400 o         1 MOL     -0.646063
     14 O4         -7.8190    2.5290    1.4830 o         1 MOL     -0.646063
     15 H4         -6.4950   -0.0550    4.1440 hn        1 MOL      0.320666
     16 H5         -5.8900   -0.8660    1.4710 h1        1 MOL      0.039203
     17 H6         -5.8020    1.4130    0.7940 hc        1 MOL     -0.004674
     18 H7         -5.3490    2.0070    2.3680 hc        1 MOL     -0.004674
     19 N2         -3.1950   -1.0150    2.7140 n         1 MOL     -0.219108
     20 C7         -1.7760   -0.9950    2.5350 c3        1 MOL      0.049141
     21 C8         -1.1280   -2.3300    2.1530 c         1 MOL      0.463391
     22 O5         -1.6110   -3.4050    2.5440 o         1 MOL     -0.490401
     23 C9         -1.1970   -0.5280    3.8920 c3        1 MOL     -0.528513
     24 C10        -1.4620    0.9140    4.1250 c3        1 MOL      0.189420
     25 C11        -0.4340    1.6750    5.0950 c3        1 MOL     -0.075603
     26 C12        -0.7700    3.0950    5.3320 c3        1 MOL     -0.142248
     27 N3         -0.5440    3.9530    4.1210 n4        1 MOL     -0.232310
     28 H8         -3.5400   -1.5050    3.5260 hn        1 MOL      0.283951
     29 H9         -1.4420   -0.2550    1.8090 h1        1 MOL      0.083813
     30 H10        -0.1340   -0.7450    3.8190 hc        1 MOL      0.168905
     31 H11        -1.6320   -1.0700    4.7280 hc        1 MOL      0.168905
     32 H12        -2.4750    1.0900    4.4770 hc        1 MOL      0.004120
     33 H13        -1.4660    1.4370    3.1660 hc        1 MOL      0.004120
     34 H14         0.5570    1.6670    4.6550 hc        1 MOL      0.074293
     35 H15        -0.4840    1.1260    6.0330 hc        1 MOL      0.074293
     36 H16        -0.0500    3.5010    6.0430 hx        1 MOL      0.109931
     37 H17        -1.7970    3.1720    5.6880 hx        1 MOL      0.109931
     38 H18        -0.7170    4.9360    4.2790 hn        1 MOL      0.297428
     39 H19         0.3980    3.8540    3.7710 hn        1 MOL      0.297428
     40 H20        -1.2880    3.7230    3.4710 hn        1 MOL      0.297428
     41 N4         -0.0080   -2.4360    1.4750 n         1 MOL     -0.262485
     42 C13         0.9740   -1.4820    0.8290 c3        1 MOL     -0.053942
     43 C14         1.4810   -0.3460    1.6850 c         1 MOL      0.570030
     44 O6          0.8970    0.7440    1.9110 o         1 MOL     -0.564329
     45 C15         0.3380   -0.9690   -0.4490 c3        1 MOL     -0.258893
     46 C16        -0.1760   -2.0120   -1.3850 c         1 MOL      0.776313
     47 O7          0.4370   -3.1040   -1.4960 o         1 MOL     -0.763387
     48 O8         -1.0590   -1.7350   -2.2310 o         1 MOL     -0.763387
     49 H21         0.1400   -3.4080    1.2560 hn        1 MOL      0.147419
     50 H22         1.8110   -2.0960    0.5090 h1        1 MOL     -0.003442
     51 H23         1.0950   -0.3940   -0.9720 hc        1 MOL      0.113812
     52 H24        -0.4290   -0.2220   -0.2250 hc        1 MOL      0.113812
     53 N5          2.6580   -0.4890    2.2370 n         1 MOL     -0.427876
     54 C17         3.5540   -1.5460    2.1480 c3        1 MOL      0.015287
     55 C18         4.7220   -1.5490    3.1640 c         1 MOL      0.447909
     56 O9          4.8360   -0.6120    3.9650 o         1 MOL     -0.517712
     57 H25         3.0250    0.3130    2.7300 hn        1 MOL      0.285714
     58 H26         3.9620   -1.5840    1.1410 h1        1 MOL      0.123397
     59 H27         3.0820   -2.5120    2.2780 h1        1 MOL      0.123397
     60 N6          5.6710   -2.5020    3.0470 n         1 MOL     -0.389753
     61 C19         5.8130   -3.4490    1.9540 c3        1 MOL     -0.054382
     62 C20         6.9660   -3.0270    0.9640 c         1 MOL      0.549826
     63 O10         7.7740   -2.1630    1.2660 o         1 MOL     -0.476922
     64 C21         6.1500   -4.8770    2.4860 c3        1 MOL     -0.138274
     65 C22         7.2050   -4.9210    3.6320 c         1 MOL      0.762729
     66 O11         8.3880   -4.6980    3.3340 o         1 MOL     -0.672483
     67 O12         6.8270   -5.1240    4.7710 o         1 MOL     -0.672483
     68 H28         6.4880   -2.4370    3.6320 hn        1 MOL      0.345499
     69 H29         4.8780   -3.4380    1.3910 h1        1 MOL      0.011282
     70 H30         6.4890   -5.5820    1.7180 hc        1 MOL     -0.009169
     71 H31         5.2530   -5.3210    2.9050 hc        1 MOL     -0.009169
     72 N7          6.8160   -3.4320   -0.2950 n         1 MOL     -0.311474
     73 C23         7.5330   -2.9400   -1.4390 c3        1 MOL     -0.259226
     74 C24         6.9900   -1.7050   -2.0630 c         1 MOL      0.720081
     75 O13         7.2460   -1.5380   -3.2410 o         1 MOL     -0.602013
     76 H32         5.9310   -3.8850   -0.4820 hn        1 MOL      0.211301
     77 H33         7.4300   -3.6880   -2.2180 h1        1 MOL      0.132295
     78 H34         8.5670   -2.7260   -1.1670 h1        1 MOL      0.132295
     79 N8          6.1740   -0.9130   -1.3580 n         1 MOL     -0.488536
     80 C25         5.6300    0.3610   -1.8750 c3        1 MOL      0.061376
     81 C26         5.6760    1.3930   -0.7020 c         1 MOL      0.551075
     82 O14         5.7350    0.9920    0.5170 o         1 MOL     -0.466593
     83 C27         4.1390    0.1010   -2.2850 c3        1 MOL      0.208630
     84 C28         3.8830   -0.5880   -3.5970 c3        1 MOL     -0.399016
     85 O15         3.6280    1.4690   -2.4610 oh        1 MOL     -0.608923
     86 H35         6.0720   -1.0770   -0.3650 hn        1 MOL      0.187939
     87 H36         6.1930    0.7680   -2.7100 h1        1 MOL      0.096249
     88 H37         3.6070   -0.3240   -1.4310 h1        1 MOL      0.044282
     89 H38         2.7330    1.3910   -2.7960 ho        1 MOL      0.436052
     90 H39         4.5240   -0.2030   -4.3980 hc        1 MOL      0.115551
     91 H40         4.0880   -1.6450   -3.4990 hc        1 MOL      0.115551
     92 H41         2.8390   -0.3470   -3.8180 hc        1 MOL      0.115551
     93 N9          5.6690    2.7060   -1.0680 n         1 MOL     -0.428691
     94 C29         5.8180    3.8420   -0.1230 c3        1 MOL     -0.093579
     95 C30         4.4610    4.6040    0.2130 c         1 MOL      0.406381
     96 O16         4.5690    5.6810    0.8080 o         1 MOL     -0.531245
     97 C31         6.7420    5.0130   -0.7030 c3        1 MOL      0.220587
     98 C32         6.1120    5.7760   -1.9110 c3        1 MOL      0.296226
     99 C33         8.0720    4.3700   -1.0710 c3        1 MOL     -0.224205
    100 C34         6.7590    7.0480   -2.3600 c3        1 MOL     -0.223660
    101 H42         5.4950    2.8790   -2.0390 hn        1 MOL      0.282382
    102 H43         6.1590    3.5200    0.8630 h1        1 MOL      0.122324
    103 H44         6.9400    5.7240    0.0940 hc        1 MOL     -0.014376
    104 H45         5.0460    5.9490   -1.7750 hc        1 MOL     -0.087821
    105 H46         6.1390    5.0570   -2.7320 hc        1 MOL     -0.087821
    106 H47         8.0060    3.7010   -1.9300 hc        1 MOL      0.043319
    107 H48         8.7350    5.2100   -1.2890 hc        1 MOL      0.043319
    108 H49         8.4040    3.7450   -0.2410 hc        1 MOL      0.043319
    109 H50         6.7860    7.6810   -1.4720 hc        1 MOL      0.042305
    110 H51         7.7700    6.7350   -2.6370 hc        1 MOL      0.042305
    111 H52         6.3130    7.4090   -3.2910 hc        1 MOL      0.042305
    112 N10         3.2950    4.0670   -0.2150 n         1 MOL     -0.162186
    113 C35         2.0000    4.7580   -0.2530 c3        1 MOL     -0.086045
    114 C36         0.7820    3.7080   -0.2320 c         1 MOL      0.488263
    115 O17         1.0090    2.5430   -0.6440 o         1 MOL     -0.466665
    116 C37         1.8520    5.5780   -1.5030 c3        1 MOL      0.310169
    117 C38         2.0030    4.8480   -2.9120 c3        1 MOL     -0.193604
    118 O18         2.7170    6.6960   -1.4900 oh        1 MOL     -0.533125
    119 H53         3.3360    3.0760   -0.3910 hn        1 MOL      0.152441
    120 H54         1.9670    5.3560    0.6560 h1        1 MOL      0.055377
    121 H55         0.8770    6.0570   -1.4670 h1        1 MOL     -0.003993
    122 H56         3.0180    6.6740   -0.5770 ho        1 MOL      0.324193
    123 H57         1.1550    4.1650   -3.0450 hc        1 MOL      0.058690
    124 H58         1.9820    5.5700   -3.7300 hc        1 MOL      0.058690
    125 H59         2.8320    4.1360   -2.8710 hc        1 MOL      0.058690
    126 N11        -0.4070    4.0970    0.0910 n         1 MOL     -0.580332
    127 C39        -1.5510    3.1600    0.0400 c3        1 MOL      0.071430
    128 C40        -1.9330    2.6800   -1.3440 c         1 MOL      0.460478
    129 O19        -1.4800    3.1570   -2.3590 o         1 MOL     -0.499195
    130 C41        -2.6990    3.7510    0.8250 c3        1 MOL      0.460735
    131 C42        -3.4320    4.8260    0.0250 c3        1 MOL     -0.388745
    132 O20        -2.2750    4.2980    2.0400 oh        1 MOL     -0.751536
    133 H60        -0.5210    5.0580    0.3820 hn        1 MOL      0.326477
    134 H61        -1.1860    2.2660    0.5430 h1        1 MOL      0.178228
    135 H62        -3.4460    2.9590    0.9330 h1        1 MOL     -0.029695
    136 H63        -3.0420    4.6470    2.5120 ho        1 MOL      0.440218
    137 H64        -3.6260    4.5230   -1.0030 hc        1 MOL      0.104431
    138 H65        -4.3690    5.1020    0.5150 hc        1 MOL      0.104431
    139 H66        -2.8410    5.7330    0.1610 hc        1 MOL      0.104431
    140 N12        -2.8770    1.7080   -1.4460 n         1 MOL     -0.099337
    141 C43        -3.6450    1.5520   -2.7110 c3        1 MOL     -0.154873
    142 C44        -4.3830    0.1950   -2.7290 c         1 MOL      0.763873
    143 O21        -5.0330   -0.1540   -3.7280 o         1 MOL     -0.669491
    144 C45        -4.6740    2.6760   -2.9970 c3        1 MOL     -0.224677
    145 C46        -5.8220    2.7890   -1.8770 c3        1 MOL      0.065207
    146 C47        -6.7240    4.0130   -2.1420 c3        1 MOL     -0.009671
    147 C48        -7.9410    4.3250   -1.2170 c3        1 MOL      0.132528
    148 N13        -9.0830    3.5140   -1.6210 n4        1 MOL     -0.453691
    149 H67        -3.1950    1.3290   -0.5660 hn        1 MOL     -0.205365
    150 H68        -2.9400    1.5270   -3.5410 h1        1 MOL      0.144795
    151 H69        -5.1850    2.6290   -3.9590 hc        1 MOL      0.103149
    152 H70        -4.1360    3.6110   -3.1200 hc        1 MOL      0.103149
    153 H71        -5.3860    2.9920   -0.9030 hc        1 MOL      0.011634
    154 H72        -6.3900    1.8640   -1.9220 hc        1 MOL      0.011634
    155 H73        -7.0130    4.0950   -3.1900 hc        1 MOL      0.003428
    156 H74        -6.0540    4.8500   -1.9290 hc        1 MOL      0.003428
    157 H75        -8.1770    5.3860   -1.2880 hx        1 MOL      0.052285
    158 H76        -7.6830    4.1510   -0.1770 hx        1 MOL      0.052285
    159 H77        -9.9350    3.7650   -1.1320 hn        1 MOL      0.342954
    160 H78        -9.2960    3.4050   -2.6000 hn        1 MOL      0.342954
    161 H79        -8.9580    2.5660   -1.2900 hn        1 MOL      0.342954
    162 N14        -4.3200   -0.6410   -1.6680 n         1 MOL     -0.361760
    163 C49        -4.5490   -2.1210   -1.7280 c3        1 MOL     -0.349129
    164 C50        -6.0410   -2.3130   -1.5470 c         1 MOL      0.432867
    165 O22        -6.6870   -1.9870   -0.5580 o         1 MOL     -0.489214
    166 C51        -3.8390   -2.8110   -0.5920 c3        1 MOL      1.066767
    167 C52        -3.7960   -4.3340   -0.4950 c3        1 MOL     -0.791194
    168 C53        -3.5590   -5.0750   -1.8660 c         1 MOL      0.960416
    169 O23        -4.4560   -5.1200   -2.7350 o         1 MOL     -0.807046
    170 O24        -2.4910   -5.7100   -2.0130 o         1 MOL     -0.807046
    171 H80        -3.9010   -0.3620   -0.7860 hn        1 MOL      0.262917
    172 H81        -4.2110   -2.5780   -2.6630 h1        1 MOL      0.162869
    173 H82        -4.3770   -2.4160    0.2750 hc        1 MOL     -0.236361
    174 H83        -2.7870   -2.5350   -0.5880 hc        1 MOL     -0.236361
    175 H84        -4.7320   -4.6690   -0.0540 hc        1 MOL      0.156902
    176 H85        -3.0280   -4.6850    0.1920 hc        1 MOL      0.156902
    177 N15        -6.6440   -2.9860   -2.5550 n         1 MOL     -0.265235
    178 C54        -7.9820   -3.5960   -2.5000 c3        1 MOL     -0.203136
    179 H86        -8.6180   -3.1440   -3.2610 h1        1 MOL      0.095387
    180 H87        -7.9020   -4.6680   -2.6840 h1        1 MOL      0.095387
    181 H88        -8.4180   -3.4270   -1.5150 h1        1 MOL      0.095387
    182 H89        -6.0150   -3.3770   -3.2380 hn        1 MOL      0.332590
    183 Ca1         0.0820   -5.5760   -2.2960 Ca        1 MOL      1.632166
    184 O25        -0.9450   -3.8810   -4.2290 oh        1 MOL     -0.874270
    185 H90        -0.5710   -3.4410   -5.0030 ho        1 MOL      0.437788
    186 H91        -1.2110   -3.1660   -3.6600 ho        1 MOL      0.437788
    187 O26         0.3980   -7.0290   -4.5140 oh        1 MOL     -0.874270
    188 H92         0.5230   -6.9500   -5.4580 ho        1 MOL      0.437788
    189 H93         0.0860   -7.9230   -4.3750 ho        1 MOL      0.437788
    190 O27         2.2200   -4.5500   -3.7860 oh        1 MOL     -0.874270
    191 H94         3.0880   -4.3870   -3.4030 ho        1 MOL      0.437788
    192 H95         2.3400   -4.4070   -4.7210 ho        1 MOL      0.437788
@<TRIPOS>BOND
     1    1    2 1   
     2    1    4 1   
     3    1    5 1   
     4    1    6 1   
     5    2    3 2   
     6    2    7 1   
     7    7    8 1   
     8    7   15 1   
     9    8    9 1   
    10    8   11 1   
    11    8   16 1   
    12    9   10 2   
    13    9   19 1   
    14   11   12 1   
    15   11   17 1   
    16   11   18 1   
    17   12   13 1   
    18   12   14 1   
    19   19   20 1   
    20   19   28 1   
    21   20   21 1   
    22   20   23 1   
    23   20   29 1   
    24   21   22 2   
    25   21   41 1   
    26   23   24 1   
    27   23   30 1   
    28   23   31 1   
    29   24   25 1   
    30   24   32 1   
    31   24   33 1   
    32   25   26 1   
    33   25   34 1   
    34   25   35 1   
    35   26   27 1   
    36   26   36 1   
    37   26   37 1   
    38   27   38 1   
    39   27   39 1   
    40   27   40 1   
    41   41   42 1   
    42   41   49 1   
    43   42   43 1   
    44   42   45 1   
    45   42   50 1   
    46   43   44 2   
    47   43   53 1   
    48   45   46 1   
    49   45   51 1   
    50   45   52 1   
    51   46   47 1   
    52   46   48 1   
    53   53   54 1   
    54   53   57 1   
    55   54   55 1   
    56   54   58 1   
    57   54   59 1   
    58   55   56 2   
    59   55   60 1   
    60   60   61 1   
    61   60   68 1   
    62   61   62 1   
    63   61   64 1   
    64   61   69 1   
    65   62   63 2   
    66   62   72 1   
    67   64   65 1   
    68   64   70 1   
    69   64   71 1   
    70   65   66 1   
    71   65   67 1   
    72   72   73 1   
    73   72   76 1   
    74   73   74 1   
    75   73   77 1   
    76   73   78 1   
    77   74   75 2   
    78   74   79 1   
    79   79   80 1   
    80   79   86 1   
    81   80   81 1   
    82   80   83 1   
    83   80   87 1   
    84   81   82 2   
    85   81   93 1   
    86   83   84 1   
    87   83   85 1   
    88   83   88 1   
    89   84   90 1   
    90   84   91 1   
    91   84   92 1   
    92   85   89 1   
    93   93   94 1   
    94   93  101 1   
    95   94   95 1   
    96   94   97 1   
    97   94  102 1   
    98   95   96 2   
    99   95  112 1   
   100   97   98 1   
   101   97   99 1   
   102   97  103 1   
   103   98  100 1   
   104   98  104 1   
   105   98  105 1   
   106   99  106 1   
   107   99  107 1   
   108   99  108 1   
   109  100  109 1   
   110  100  110 1   
   111  100  111 1   
   112  112  113 1   
   113  112  119 1   
   114  113  114 1   
   115  113  116 1   
   116  113  120 1   
   117  114  115 2   
   118  114  126 1   
   119  116  117 1   
   120  116  118 1   
   121  116  121 1   
   122  117  123 1   
   123  117  124 1   
   124  117  125 1   
   125  118  122 1   
   126  126  127 1   
   127  126  133 1   
   128  127  128 1   
   129  127  130 1   
   130  127  134 1   
   131  128  129 2   
   132  128  140 1   
   133  130  131 1   
   134  130  132 1   
   135  130  135 1   
   136  131  137 1   
   137  131  138 1   
   138  131  139 1   
   139  132  136 1   
   140  140  141 1   
   141  140  149 1   
   142  141  142 1   
   143  141  144 1   
   144  141  150 1   
   145  142  143 2   
   146  142  162 1   
   147  144  145 1   
   148  144  151 1   
   149  144  152 1   
   150  145  146 1   
   151  145  153 1   
   152  145  154 1   
   153  146  147 1   
   154  146  155 1   
   155  146  156 1   
   156  147  148 1   
   157  147  157 1   
   158  147  158 1   
   159  148  159 1   
   160  148  160 1   
   161  148  161 1   
   162  162  163 1   
   163  162  171 1   
   164  163  164 1   
   165  163  166 1   
   166  163  172 1   
   167  164  165 2   
   168  164  177 1   
   169  166  167 1   
   170  166  173 1   
   171  166  174 1   
   172  167  168 1   
   173  167  175 1   
   174  167  176 1   
   175  168  169 1   
   176  168  170 1   
   177  177  178 1   
   178  177  182 1   
   179  178  179 1   
   180  178  180 1   
   181  178  181 1   
   182  184  185 1   
   183  184  186 1   
   184  187  188 1   
   185  187  189 1   
   186  190  191 1   
   187  190  192 1   
@<TRIPOS>SUBSTRUCTURE
     1 MOL         1 TEMP              0 ****  ****    0 ROOT
