@<TRIPOS>MOLECULE
MOL
  192   187     1     0     0
SMALL
resp


@<TRIPOS>ATOM
      1 C1         -8.4940    0.9560   -2.8960 c3        1 MOL     -0.464940
      2 C2         -7.6340    0.2350   -1.7740 c         1 MOL      0.737599
      3 O1         -6.5540   -0.2700   -1.9150 o         1 MOL     -0.724830
      4 H1         -9.4840    0.5010   -2.9410 hc        1 MOL      0.122573
      5 H2         -8.5920    2.0150   -2.6550 hc        1 MOL      0.122573
      6 H3         -8.0000    0.8450   -3.8610 hc        1 MOL      0.122573
      7 N1         -8.1340    0.2470   -0.5570 n         1 MOL     -0.567213
      8 C3         -7.4800   -0.1120    0.7040 c3        1 MOL      0.115421
      9 C4         -7.4150   -1.6560    0.9630 c         1 MOL      0.512882
     10 O2         -7.9930   -2.1480    1.9210 o         1 MOL     -0.494869
     11 C5         -7.9670    0.6240    1.9330 c3        1 MOL     -0.088201
     12 C6         -9.4720    0.6350    2.1240 c         1 MOL      0.652378
     13 O3         -9.8690    0.6650    3.3140 o         1 MOL     -0.639105
     14 O4        -10.2280    0.6950    1.1680 o         1 MOL     -0.639105
     15 H4         -9.1130    0.4930   -0.4760 hn        1 MOL      0.253744
     16 H5         -6.4500    0.2200    0.5640 h1        1 MOL      0.041257
     17 H6         -7.5920    1.6380    1.8930 hc        1 MOL      0.053494
     18 H7         -7.4450    0.2270    2.8040 hc        1 MOL      0.053494
     19 N2         -6.6790   -2.4120    0.1880 n         1 MOL     -0.618958
     20 C7         -6.2200   -3.7390    0.4810 c3        1 MOL      0.480671
     21 C8         -4.8020   -3.8720    0.9230 c         1 MOL      0.427626
     22 O5         -4.5070   -4.7050    1.8160 o         1 MOL     -0.560478
     23 C9         -6.4400   -4.7300   -0.6750 c3        1 MOL     -0.493593
     24 C10        -7.8120   -4.6270   -1.3330 c3        1 MOL      0.390407
     25 C11        -8.0840   -5.6440   -2.4250 c3        1 MOL      0.004358
     26 C12        -9.5370   -5.7100   -2.8850 c3        1 MOL     -0.102666
     27 N3         -9.9700   -4.4150   -3.4640 n4        1 MOL     -0.342535
     28 H8         -6.1870   -1.9140   -0.5350 hn        1 MOL      0.357895
     29 H9         -6.7890   -4.0540    1.3530 h1        1 MOL      0.022306
     30 H10        -6.4180   -5.7330   -0.2370 hc        1 MOL      0.099234
     31 H11        -5.6890   -4.6420   -1.4580 hc        1 MOL      0.099234
     32 H12        -7.8890   -3.6200   -1.7350 hc        1 MOL     -0.070828
     33 H13        -8.5980   -4.7980   -0.5980 hc        1 MOL     -0.070828
     34 H14        -7.8660   -6.6820   -2.1970 hc        1 MOL      0.013117
     35 H15        -7.4240   -5.3260   -3.2240 hc        1 MOL      0.013117
     36 H16       -10.2060   -5.9690   -2.0680 hx        1 MOL      0.124601
     37 H17        -9.7050   -6.5150   -3.5960 hx        1 MOL      0.124601
     38 H18        -9.4140   -4.2100   -4.2850 hn        1 MOL      0.309320
     39 H19       -10.9380   -4.5410   -3.7260 hn        1 MOL      0.309320
     40 H20        -9.9700   -3.6820   -2.7780 hn        1 MOL      0.309320
     41 N4         -3.7880   -3.0970    0.5690 n         1 MOL     -0.404287
     42 C13        -3.6070   -2.1420   -0.5240 c3        1 MOL      0.143934
     43 C14        -3.7620   -0.6580   -0.0610 c         1 MOL      0.338746
     44 O6         -4.0360   -0.3810    1.1350 o         1 MOL     -0.475409
     45 C15        -2.1500   -2.3320   -1.1300 c3        1 MOL     -0.459037
     46 C16        -1.0610   -2.2880   -0.0520 c         1 MOL      0.814115
     47 O7         -0.5070   -1.1960    0.2100 o         1 MOL     -0.696843
     48 O8         -0.8620   -3.2970    0.7000 o         1 MOL     -0.696843
     49 H21        -2.8870   -3.3100    0.9870 hn        1 MOL      0.355434
     50 H22        -4.2860   -2.3390   -1.3610 h1        1 MOL      0.036661
     51 H23        -1.9970   -1.5740   -1.9000 hc        1 MOL      0.094812
     52 H24        -2.2170   -3.2430   -1.7230 hc        1 MOL      0.094812
     53 N5         -3.8680    0.2400   -1.0450 n         1 MOL      0.007939
     54 C17        -4.1880    1.6390   -0.8430 c3        1 MOL     -0.300768
     55 C18        -3.1530    2.3980   -0.1050 c         1 MOL      0.623876
     56 O9         -2.0150    1.9380    0.2850 o         1 MOL     -0.736084
     57 H25        -3.6820   -0.1210   -1.9600 hn        1 MOL      0.172706
     58 H26        -5.1420    1.7330   -0.3220 h1        1 MOL      0.154550
     59 H27        -4.1450    2.0730   -1.8400 h1        1 MOL      0.154550
     60 N6         -3.4740    3.6730    0.2420 n         1 MOL     -0.494976
     61 C19        -2.5770    4.7240    0.8070 c3        1 MOL      0.385858
     62 C20        -2.9810    6.2060    0.4160 c         1 MOL      0.392141
     63 O10        -4.1030    6.4800   -0.0440 o         1 MOL     -0.522700
     64 C21        -2.5490    4.5760    2.3250 c3        1 MOL     -0.236267
     65 C22        -1.9030    3.2560    2.8240 c         1 MOL      0.738668
     66 O11        -0.7530    3.0720    2.4900 o         1 MOL     -0.722289
     67 O12        -2.5770    2.3590    3.4610 o         1 MOL     -0.722289
     68 H28        -4.4180    3.9650    0.0270 hn        1 MOL      0.259135
     69 H29        -1.6050    4.5560    0.3540 h1        1 MOL      0.000196
     70 H30        -3.5460    4.6710    2.7380 hc        1 MOL      0.057974
     71 H31        -1.9990    5.3750    2.8180 hc        1 MOL      0.057974
     72 N7         -2.1300    7.2150    0.4990 n         1 MOL     -0.431601
     73 C23        -0.6990    7.0210    0.8930 c3        1 MOL     -0.135605
     74 C24         0.1540    6.2800   -0.2630 c         1 MOL      0.628405
     75 O13        -0.3770    6.1570   -1.4060 o         1 MOL     -0.502996
     76 H32        -2.3290    8.1560    0.2010 hn        1 MOL      0.338786
     77 H33        -0.6210    6.5170    1.8520 h1        1 MOL      0.091404
     78 H34        -0.2280    8.0040    0.9950 h1        1 MOL      0.091404
     79 N8          1.3590    5.8760    0.1060 n         1 MOL     -0.638854
     80 C25         2.2600    5.2480   -0.8760 c3        1 MOL     -0.003186
     81 C26         1.6720    3.8220   -1.1540 c         1 MOL      0.514727
     82 O14         0.9890    3.2480   -0.3280 o         1 MOL     -0.454322
     83 C27         3.7050    5.2800   -0.4380 c3        1 MOL      0.396470
     84 C28         4.7140    4.6480   -1.3070 c3        1 MOL     -0.332774
     85 O15         3.8050    4.7490    0.8470 oh        1 MOL     -0.652208
     86 H35         1.7900    6.2350    0.9510 hn        1 MOL      0.349288
     87 H36         2.2070    5.8260   -1.7950 h1        1 MOL      0.061675
     88 H37         4.0810    6.2960   -0.3330 h1        1 MOL      0.003640
     89 H38         4.5440    5.1860    1.2650 ho        1 MOL      0.421668
     90 H39         4.5690    3.5840   -1.4780 hc        1 MOL      0.083608
     91 H40         4.8170    5.1540   -2.2670 hc        1 MOL      0.083608
     92 H41         5.6640    4.8970   -0.8250 hc        1 MOL      0.083608
     93 N9          1.7830    3.2050   -2.3180 n         1 MOL     -0.317105
     94 C29         1.2640    1.8930   -2.7880 c3        1 MOL      0.029317
     95 C30         1.7790    0.7050   -2.0590 c         1 MOL      0.269848
     96 O16         1.7940    0.6470   -0.8210 o         1 MOL     -0.483969
     97 C31        -0.3070    1.9110   -2.8620 c3        1 MOL      0.093772
     98 C32        -0.7980    3.1290   -3.6530 c3        1 MOL     -0.252575
     99 C33        -0.9320    0.5850   -3.2640 c3        1 MOL     -0.550341
    100 C34        -0.1810    3.2760   -5.0480 c3        1 MOL      0.016864
    101 H42         2.3560    3.7220   -2.9710 hn        1 MOL      0.215093
    102 H43         1.6710    1.8880   -3.7990 h1        1 MOL      0.053641
    103 H44        -0.6950    2.1460   -1.8700 hc        1 MOL      0.127754
    104 H45        -0.6890    3.9640   -2.9530 hc        1 MOL      0.088600
    105 H46        -1.8570    3.0350   -3.8610 hc        1 MOL      0.088600
    106 H47        -0.6920   -0.1320   -2.4770 hc        1 MOL      0.137732
    107 H48        -2.0070    0.7520   -3.1830 hc        1 MOL      0.137732
    108 H49        -0.5900    0.4120   -4.2770 hc        1 MOL      0.137732
    109 H50        -0.5690    4.0950   -5.6470 hc        1 MOL      0.003115
    110 H51         0.8910    3.4750   -4.9930 hc        1 MOL      0.003115
    111 H52        -0.3170    2.3280   -5.5820 hc        1 MOL      0.003115
    112 N10         2.1610   -0.3900   -2.7390 n         1 MOL     -0.102819
    113 C35         2.3800   -1.7930   -2.2120 c3        1 MOL     -0.004892
    114 C36         3.8240   -2.1630   -1.9620 c         1 MOL      0.608667
    115 O17         4.1920   -3.1240   -1.3250 o         1 MOL     -0.566459
    116 C37         1.6340   -2.9120   -2.9220 c3        1 MOL      0.367006
    117 C38         2.3530   -3.6550   -3.9890 c3        1 MOL     -0.249710
    118 O18         0.4620   -2.3940   -3.4790 oh        1 MOL     -0.592041
    119 H53         2.2020   -0.1750   -3.7220 hn        1 MOL      0.169981
    120 H54         1.9710   -1.9020   -1.2130 h1        1 MOL      0.047505
    121 H55         1.3910   -3.6760   -2.1820 h1        1 MOL      0.051157
    122 H56         0.6120   -2.2580   -4.4240 ho        1 MOL      0.369499
    123 H57         2.6670   -2.9030   -4.7240 hc        1 MOL      0.046361
    124 H58         3.2180   -4.1490   -3.5590 hc        1 MOL      0.046361
    125 H59         1.6970   -4.3170   -4.5460 hc        1 MOL      0.046361
    126 N11         4.7140   -1.2980   -2.5110 n         1 MOL     -0.363332
    127 C39         6.1510   -1.6010   -2.4850 c3        1 MOL     -0.200849
    128 C40         6.5880   -1.3920   -1.0410 c         1 MOL      0.491718
    129 O19         6.2570   -0.3740   -0.4410 o         1 MOL     -0.446680
    130 C41         6.8480   -0.7260   -3.6170 c3        1 MOL      0.390688
    131 C42         8.3490   -0.9120   -3.5240 c3        1 MOL     -0.384452
    132 O20         6.4050   -1.1990   -4.8580 oh        1 MOL     -0.618829
    133 H60         4.3560   -0.5520   -3.0840 hn        1 MOL      0.199705
    134 H61         6.3090   -2.5970   -2.9050 h1        1 MOL      0.150582
    135 H62         6.7450    0.3510   -3.5140 h1        1 MOL      0.014489
    136 H63         7.0880   -0.9310   -5.4710 ho        1 MOL      0.407594
    137 H64         8.8190   -0.5630   -2.6070 hc        1 MOL      0.076567
    138 H65         8.4850   -1.9990   -3.5340 hc        1 MOL      0.076567
    139 H66         8.8860   -0.4780   -4.3700 hc        1 MOL      0.076567
    140 N12         7.2560   -2.4530   -0.4760 n         1 MOL     -0.393011
    141 C43         7.7160   -2.3770    0.9570 c3        1 MOL      0.154738
    142 C44         6.5140   -1.8700    1.8070 c         1 MOL      0.557369
    143 O21         6.7500   -0.8880    2.5590 o         1 MOL     -0.539204
    144 C45         8.9840   -1.4930    1.0650 c3        1 MOL     -0.274828
    145 C46        10.2540   -1.9480    0.3190 c3        1 MOL      0.223412
    146 C47        11.3530   -0.8950    0.5180 c3        1 MOL     -0.009522
    147 C48        12.6740   -1.3380   -0.1540 c3        1 MOL     -0.027708
    148 N13        12.5550   -1.2310   -1.6110 n4        1 MOL     -0.143010
    149 H67         7.4390   -3.2410   -1.0760 hn        1 MOL      0.246878
    150 H68         7.9310   -3.3760    1.3510 h1        1 MOL      0.039924
    151 H69         9.1520   -1.4590    2.1480 hc        1 MOL      0.099519
    152 H70         8.6670   -0.5300    0.6610 hc        1 MOL      0.099519
    153 H71        10.0370   -2.0490   -0.7410 hc        1 MOL     -0.058611
    154 H72        10.5800   -2.9030    0.7310 hc        1 MOL     -0.058611
    155 H73        11.5650   -0.7480    1.5770 hc        1 MOL      0.028230
    156 H74        11.0470    0.0380    0.0370 hc        1 MOL      0.028230
    157 H75        13.0280   -2.3110    0.1860 hx        1 MOL      0.089407
    158 H76        13.4260   -0.6530    0.2290 hx        1 MOL      0.089407
    159 H77        13.4780   -1.3730   -2.0020 hn        1 MOL      0.170518
    160 H78        12.0560   -2.0140   -2.0090 hn        1 MOL      0.170518
    161 H79        12.1800   -0.3770   -1.9910 hn        1 MOL      0.170518
    162 N14         5.2780   -2.4320    1.7280 n         1 MOL     -0.684197
    163 C49         4.1420   -2.0040    2.6320 c3        1 MOL      0.382724
    164 C50         2.7190   -1.9000    1.9700 c         1 MOL      0.567257
    165 O22         2.2180   -0.7910    1.7260 o         1 MOL     -0.722628
    166 C51         4.1300   -2.5610    4.0710 c3        1 MOL     -0.344533
    167 C52         3.3360   -1.7110    4.9850 c3        1 MOL     -0.049419
    168 C53         3.0750   -2.2530    6.4390 c         1 MOL      0.656246
    169 O23         2.4610   -1.5540    7.2570 o         1 MOL     -0.621611
    170 O24         3.6340   -3.3400    6.7230 o         1 MOL     -0.621611
    171 H80         5.1170   -3.1330    1.0210 hn        1 MOL      0.323784
    172 H81         4.2790   -0.9380    2.7820 h1        1 MOL      0.052865
    173 H82         5.1720   -2.5840    4.3830 hc        1 MOL      0.093724
    174 H83         3.8340   -3.5980    4.1600 hc        1 MOL      0.093724
    175 H84         2.4030   -1.4870    4.4750 hc        1 MOL      0.009936
    176 H85         3.7480   -0.7130    5.1320 hc        1 MOL      0.009936
    177 N15         2.0410   -2.9930    1.7010 n         1 MOL     -0.182304
    178 C54         2.3740   -4.4240    1.8280 c3        1 MOL     -0.335277
    179 H86         1.5020   -5.0240    1.5680 h1        1 MOL      0.123940
    180 H87         3.1950   -4.6670    1.1540 h1        1 MOL      0.123940
    181 H88         2.6710   -4.6390    2.8540 h1        1 MOL      0.123940
    182 H89         1.0770   -2.9130    1.4070 hn        1 MOL      0.242515
    183 Ca1         0.2710    0.9700    1.3060 Ca        1 MOL      1.796238
    184 O25         0.7670    0.5620    3.9060 oh        1 MOL     -0.871919
    185 H90         0.3870   -0.1860    4.3670 ho        1 MOL      0.432589
    186 H91         1.1740    1.0960    4.5850 ho        1 MOL      0.432589
    187 O26         2.3420    2.6580    1.9910 oh        1 MOL     -0.871919
    188 H92         2.3660    3.3780    1.3700 ho        1 MOL      0.432589
    189 H93         3.2290    2.6070    2.3380 ho        1 MOL      0.432589
    190 O27        -1.9770   -0.0170    2.6650 oh        1 MOL     -0.871919
    191 H94        -2.8270   -0.0070    2.2200 ho        1 MOL      0.432589
    192 H95        -1.9970    0.7650    3.2160 ho        1 MOL      0.432589
@<TRIPOS>BOND
     1    1    2 1   
     2    1    4 1   
     3    1    5 1   
     4    1    6 1   
     5    2    3 2   
     6    2    7 1   
     7    7    8 1   
     8    7   15 1   
     9    8    9 1   
    10    8   11 1   
    11    8   16 1   
    12    9   10 2   
    13    9   19 1   
    14   11   12 1   
    15   11   17 1   
    16   11   18 1   
    17   12   13 1   
    18   12   14 1   
    19   19   20 1   
    20   19   28 1   
    21   20   21 1   
    22   20   23 1   
    23   20   29 1   
    24   21   22 2   
    25   21   41 1   
    26   23   24 1   
    27   23   30 1   
    28   23   31 1   
    29   24   25 1   
    30   24   32 1   
    31   24   33 1   
    32   25   26 1   
    33   25   34 1   
    34   25   35 1   
    35   26   27 1   
    36   26   36 1   
    37   26   37 1   
    38   27   38 1   
    39   27   39 1   
    40   27   40 1   
    41   41   42 1   
    42   41   49 1   
    43   42   43 1   
    44   42   45 1   
    45   42   50 1   
    46   43   44 2   
    47   43   53 1   
    48   45   46 1   
    49   45   51 1   
    50   45   52 1   
    51   46   47 1   
    52   46   48 1   
    53   53   54 1   
    54   53   57 1   
    55   54   55 1   
    56   54   58 1   
    57   54   59 1   
    58   55   56 2   
    59   55   60 1   
    60   60   61 1   
    61   60   68 1   
    62   61   62 1   
    63   61   64 1   
    64   61   69 1   
    65   62   63 2   
    66   62   72 1   
    67   64   65 1   
    68   64   70 1   
    69   64   71 1   
    70   65   66 1   
    71   65   67 1   
    72   72   73 1   
    73   72   76 1   
    74   73   74 1   
    75   73   77 1   
    76   73   78 1   
    77   74   75 2   
    78   74   79 1   
    79   79   80 1   
    80   79   86 1   
    81   80   81 1   
    82   80   83 1   
    83   80   87 1   
    84   81   82 2   
    85   81   93 1   
    86   83   84 1   
    87   83   85 1   
    88   83   88 1   
    89   84   90 1   
    90   84   91 1   
    91   84   92 1   
    92   85   89 1   
    93   93   94 1   
    94   93  101 1   
    95   94   95 1   
    96   94   97 1   
    97   94  102 1   
    98   95   96 2   
    99   95  112 1   
   100   97   98 1   
   101   97   99 1   
   102   97  103 1   
   103   98  100 1   
   104   98  104 1   
   105   98  105 1   
   106   99  106 1   
   107   99  107 1   
   108   99  108 1   
   109  100  109 1   
   110  100  110 1   
   111  100  111 1   
   112  112  113 1   
   113  112  119 1   
   114  113  114 1   
   115  113  116 1   
   116  113  120 1   
   117  114  115 2   
   118  114  126 1   
   119  116  117 1   
   120  116  118 1   
   121  116  121 1   
   122  117  123 1   
   123  117  124 1   
   124  117  125 1   
   125  118  122 1   
   126  126  127 1   
   127  126  133 1   
   128  127  128 1   
   129  127  130 1   
   130  127  134 1   
   131  128  129 2   
   132  128  140 1   
   133  130  131 1   
   134  130  132 1   
   135  130  135 1   
   136  131  137 1   
   137  131  138 1   
   138  131  139 1   
   139  132  136 1   
   140  140  141 1   
   141  140  149 1   
   142  141  142 1   
   143  141  144 1   
   144  141  150 1   
   145  142  143 2   
   146  142  162 1   
   147  144  145 1   
   148  144  151 1   
   149  144  152 1   
   150  145  146 1   
   151  145  153 1   
   152  145  154 1   
   153  146  147 1   
   154  146  155 1   
   155  146  156 1   
   156  147  148 1   
   157  147  157 1   
   158  147  158 1   
   159  148  159 1   
   160  148  160 1   
   161  148  161 1   
   162  162  163 1   
   163  162  171 1   
   164  163  164 1   
   165  163  166 1   
   166  163  172 1   
   167  164  165 2   
   168  164  177 1   
   169  166  167 1   
   170  166  173 1   
   171  166  174 1   
   172  167  168 1   
   173  167  175 1   
   174  167  176 1   
   175  168  169 1   
   176  168  170 1   
   177  177  178 1   
   178  177  182 1   
   179  178  179 1   
   180  178  180 1   
   181  178  181 1   
   182  184  185 1   
   183  184  186 1   
   184  187  188 1   
   185  187  189 1   
   186  190  191 1   
   187  190  192 1   
@<TRIPOS>SUBSTRUCTURE
     1 MOL         1 TEMP              0 ****  ****    0 ROOT
