@<TRIPOS>MOLECULE
MOL
  178   175     1     0     0
SMALL
resp


@<TRIPOS>ATOM
      1 C1          7.2460   -7.2560    3.5550 c3        1 MOL     -0.295951
      2 C2          6.3380   -6.2820    2.7660 c         1 MOL      0.697681
      3 O1          5.1240   -6.5500    2.6610 o         1 MOL     -0.586780
      4 H1          7.6220   -8.0270    2.8820 hc        1 MOL      0.074070
      5 H2          8.0850   -6.7060    3.9820 hc        1 MOL      0.074070
      6 H3          6.6710   -7.7230    4.3550 hc        1 MOL      0.074070
      7 N1          6.7490   -5.2170    2.0740 n         1 MOL     -0.682298
      8 C3          8.0550   -4.6140    2.2210 c3        1 MOL      0.321618
      9 C4          8.6630   -4.2710    0.8210 c         1 MOL      0.379542
     10 O2          9.7010   -3.6240    0.7620 o         1 MOL     -0.532905
     11 C5          7.9930   -3.3870    3.0710 c3        1 MOL     -0.314708
     12 C6          7.2100   -2.2090    2.4930 c         1 MOL      0.810673
     13 O3          6.6800   -2.1920    1.3870 o         1 MOL     -0.783689
     14 O4          7.0070   -1.1770    3.2160 o         1 MOL     -0.783689
     15 H4          5.9450   -4.6750    1.8100 hn        1 MOL      0.376166
     16 H5          8.8000   -5.2390    2.7140 h1        1 MOL      0.028689
     17 H6          9.0230   -3.0620    3.1980 hc        1 MOL      0.073932
     18 H7          7.5230   -3.6780    4.0190 hc        1 MOL      0.073932
     19 N2          8.0070   -4.6960   -0.2290 n         1 MOL     -0.423389
     20 C7          8.5040   -4.6650   -1.5610 c3        1 MOL      0.336908
     21 C8          8.2030   -3.3970   -2.4770 c         1 MOL      0.320917
     22 O5          8.2070   -3.4740   -3.6630 o         1 MOL     -0.486061
     23 C9          8.1760   -5.9070   -2.3590 c3        1 MOL     -0.279502
     24 H8          7.0850   -5.1060   -0.1670 hn        1 MOL      0.281183
     25 H9          9.5920   -4.7050   -1.5110 h1        1 MOL     -0.003350
     26 H10         8.4420   -5.9130   -3.4160 hc        1 MOL      0.071119
     27 H11         8.5680   -6.7620   -1.8100 hc        1 MOL      0.071119
     28 H12         7.0940   -6.0570   -2.3750 hc        1 MOL      0.071119
     29 N3          7.8320   -2.2900   -1.8490 n         1 MOL     -0.176647
     30 C10         7.5600   -1.0350   -2.6030 c3        1 MOL     -0.156045
     31 C11         7.7980    0.1820   -1.6740 c         1 MOL      0.519289
     32 O6          7.7260    0.1140   -0.4560 o         1 MOL     -0.494312
     33 C12         6.1040   -1.0200   -3.1160 c3        1 MOL      0.078064
     34 C13         5.0470   -1.2860   -2.0400 c         1 MOL      0.600166
     35 O7          5.0190   -0.5780   -1.0320 o         1 MOL     -0.652507
     36 O8          4.1700   -2.1690   -2.2520 o         1 MOL     -0.652507
     37 H13         7.8560   -2.2670   -0.8390 hn        1 MOL      0.191335
     38 H14         8.1400   -0.8880   -3.5090 h1        1 MOL      0.071169
     39 H15         6.0300   -1.8490   -3.8310 hc        1 MOL      0.000699
     40 H16         5.7750   -0.1020   -3.5960 hc        1 MOL      0.000699
     41 N4          7.9300    1.3750   -2.2800 n         1 MOL     -0.415313
     42 C14         8.1250    2.6750   -1.6320 c3        1 MOL     -0.164836
     43 C15         7.0700    3.1720   -0.6720 c         1 MOL      0.725345
     44 O9          6.2080    2.4380   -0.1840 o         1 MOL     -0.637616
     45 H17         7.8130    1.3580   -3.2780 hn        1 MOL      0.311527
     46 H18         8.2730    3.3420   -2.4820 h1        1 MOL      0.101358
     47 H19         9.0680    2.6410   -1.0980 h1        1 MOL      0.101358
     48 N5          7.1040    4.5350   -0.4980 n         1 MOL     -0.697565
     49 C16         6.2570    5.2680    0.4680 c3        1 MOL      0.536828
     50 C17         4.7540    5.2530    0.1390 c         1 MOL      0.556740
     51 O10         4.5090    5.4770   -1.0490 o         1 MOL     -0.522386
     52 C18         6.8330    6.6760    0.6360 c3        1 MOL     -0.404744
     53 C19         6.2310    7.4280    1.7330 c         1 MOL      0.612079
     54 N6          6.1070    6.9220    2.9780 n         1 MOL     -0.750397
     55 O11         5.7030    8.5480    1.5510 o         1 MOL     -0.507238
     56 H20         7.9010    4.9760   -0.9280 hn        1 MOL      0.312671
     57 H21         6.2520    4.7110    1.4010 h1        1 MOL     -0.198205
     58 H22         6.5660    7.2070   -0.2760 hc        1 MOL      0.123568
     59 H23         7.9150    6.6620    0.7820 hc        1 MOL      0.123568
     60 H24         6.7720    6.2440    3.3060 hn        1 MOL      0.346997
     61 H25         5.5520    7.3510    3.7090 hn        1 MOL      0.346997
     62 N7          3.9330    4.9780    1.0990 n         1 MOL     -0.503258
     63 C20         2.7030    4.2950    0.7580 c3        1 MOL      0.162034
     64 C21         2.8330    2.7880    0.4990 c         1 MOL      0.279863
     65 O12         3.5270    2.1180    1.2790 o         1 MOL     -0.533821
     66 H26         4.2220    4.8180    2.0530 hn        1 MOL      0.301437
     67 H27         2.3560    4.7800   -0.1540 h1        1 MOL      0.076181
     68 H28         1.8890    4.6180    1.4100 h1        1 MOL      0.076181
     69 N8          2.2510    2.1390   -0.5030 n         1 MOL     -0.113202
     70 C22         1.4120    2.7120   -1.5850 c3        1 MOL     -0.233319
     71 C23        -0.0350    2.2010   -1.6220 c         1 MOL      0.483712
     72 O13        -0.8710    2.7740   -2.3590 o         1 MOL     -0.543085
     73 C24         2.0720    2.3800   -2.9920 c3        1 MOL      0.341425
     74 C25         3.5430    2.6760   -3.0310 c3        1 MOL     -0.119883
     75 O14         1.8660    1.1450   -3.5010 oh        1 MOL     -0.582622
     76 H29         2.2550    1.1340   -0.4450 hn        1 MOL      0.207146
     77 H30         1.2550    3.7960   -1.5730 h1        1 MOL      0.132458
     78 H31         1.6610    3.0150   -3.7820 h1        1 MOL     -0.004865
     79 H32         1.1150    1.0960   -4.0960 ho        1 MOL      0.395820
     80 H33         4.1720    1.9700   -2.4680 hc        1 MOL      0.026959
     81 H34         3.8620    2.8420   -4.0600 hc        1 MOL      0.026959
     82 H35         3.5840    3.6490   -2.5360 hc        1 MOL      0.026959
     83 N9         -0.4040    1.1490   -0.9020 n         1 MOL     -0.372595
     84 C26        -1.7660    0.6680   -0.8580 c3        1 MOL      0.085716
     85 C27        -2.3550    0.9050    0.5830 c         1 MOL      0.647527
     86 O15        -1.5220    0.8320    1.4600 o         1 MOL     -0.601775
     87 C28        -1.8410   -0.8200   -1.1890 c3        1 MOL     -0.142539
     88 C29        -1.1400   -1.0050   -2.5570 c3        1 MOL      0.071325
     89 C30        -3.2570   -1.5190   -1.1280 c3        1 MOL     -0.031114
     90 C31        -1.0130   -2.4640   -2.9050 c3        1 MOL     -0.184088
     91 H36         0.2490    0.8820   -0.1740 hn        1 MOL      0.263964
     92 H37        -2.4270    1.1570   -1.5620 h1        1 MOL      0.080410
     93 H38        -1.1940   -1.2740   -0.4480 hc        1 MOL      0.018078
     94 H39        -0.1360   -0.6150   -2.6720 hc        1 MOL      0.013552
     95 H40        -1.7250   -0.5440   -3.3480 hc        1 MOL      0.013552
     96 H41        -3.9140   -1.2140   -1.9350 hc        1 MOL      0.069280
     97 H42        -3.0760   -2.5960   -1.2120 hc        1 MOL      0.069280
     98 H43        -3.5360   -1.4640   -0.0730 hc        1 MOL      0.069280
     99 H44        -0.3210   -2.5740   -3.7330 hc        1 MOL      0.040546
    100 H45        -0.4750   -3.0400   -2.1510 hc        1 MOL      0.040546
    101 H46        -1.9950   -2.9130   -3.0950 hc        1 MOL      0.040546
    102 N10        -3.6660    1.2160    0.7820 n         1 MOL     -0.608602
    103 C32        -4.7620    1.5460   -0.1180 c3        1 MOL      0.259684
    104 C33        -6.1680    1.3190    0.4980 c         1 MOL      0.417095
    105 O16        -6.3280    1.0010    1.7090 o         1 MOL     -0.514050
    106 C34        -4.6360    2.9290   -0.6360 c3        1 MOL     -0.064788
    107 C35        -4.4210    4.1330    0.3380 c         1 MOL      0.712618
    108 O17        -3.2700    4.6080    0.4550 o         1 MOL     -0.734370
    109 O18        -5.4090    4.5530    0.9620 o         1 MOL     -0.734370
    110 H47        -3.8900    1.3670    1.7560 hn        1 MOL      0.319833
    111 H48        -4.7530    0.8990   -0.9940 h1        1 MOL     -0.061002
    112 H49        -5.5640    3.1860   -1.1390 hc        1 MOL     -0.028060
    113 H50        -3.8490    3.0420   -1.3740 hc        1 MOL     -0.028060
    114 N11        -7.1810    1.2880   -0.4000 n         1 MOL     -0.405514
    115 C36        -8.6150    1.0910   -0.0340 c3        1 MOL      0.217574
    116 C37        -9.3440    0.4240   -1.2000 c         1 MOL      0.147670
    117 O19        -9.2150    0.9040   -2.2970 o         1 MOL     -0.464229
    118 C38        -9.2420    2.4500    0.2350 c3        1 MOL     -0.330709
    119 C39       -10.6680    2.3780    0.7160 ca        1 MOL      0.203813
    120 C40       -11.6040    2.3660   -0.3140 ca        1 MOL     -0.219290
    121 C41       -10.9880    2.2430    2.0910 ca        1 MOL     -0.219290
    122 C42       -12.9280    2.1960    0.0070 ca        1 MOL     -0.097541
    123 C43       -12.3660    2.0740    2.4180 ca        1 MOL     -0.097541
    124 C44       -13.3220    2.0720    1.3720 ca        1 MOL     -0.159878
    125 H51        -6.9210    1.4180   -1.3660 hn        1 MOL      0.326860
    126 H52        -8.8010    0.5040    0.8650 h1        1 MOL      0.073750
    127 H53        -9.0990    3.0890   -0.6380 hc        1 MOL      0.118588
    128 H54        -8.7280    2.9780    1.0420 hc        1 MOL      0.118588
    129 H55       -11.3390    2.3820   -1.3670 ha        1 MOL      0.162291
    130 H56       -10.1500    2.1680    2.7680 ha        1 MOL      0.162291
    131 H57       -13.6450    2.1120   -0.7970 ha        1 MOL      0.104707
    132 H58       -12.6680    1.8690    3.4400 ha        1 MOL      0.104707
    133 H59       -14.3500    1.9630    1.6870 ha        1 MOL      0.094535
    134 N12       -10.2520   -0.5560   -0.9140 n         1 MOL      0.124632
    135 C45       -10.5320   -1.1390    0.3920 c3        1 MOL      0.125408
    136 C46        -9.3220   -1.7650    1.1030 c         1 MOL      0.266681
    137 O20        -9.2300   -1.5870    2.3160 o         1 MOL     -0.521880
    138 C47       -11.6870   -2.1110    0.1700 c3        1 MOL      0.014990
    139 C48       -12.4170   -1.6730   -1.0580 c3        1 MOL     -0.023822
    140 C49       -11.2350   -1.0430   -1.8370 c3        1 MOL     -0.186038
    141 H60       -10.9290   -0.3490    1.0410 h1        1 MOL      0.011606
    142 H61       -11.3130   -3.1350    0.0950 hc        1 MOL      0.012022
    143 H62       -12.3940   -2.1290    1.0000 hc        1 MOL      0.012022
    144 H63       -12.8300   -2.5600   -1.5330 hc        1 MOL      0.019296
    145 H64       -13.1310   -0.8810   -0.8480 hc        1 MOL      0.019296
    146 H65       -10.7370   -1.7310   -2.5230 h1        1 MOL      0.067674
    147 H66       -11.6590   -0.1550   -2.3140 h1        1 MOL      0.067674
    148 N13        -8.4720   -2.4190    0.3750 n         1 MOL     -0.228243
    149 C50        -7.2410   -3.0240    0.7950 c3        1 MOL      0.202905
    150 C51        -7.4830   -4.4810    1.4240 c         1 MOL      0.392850
    151 O21        -7.9470   -5.4300    0.7940 o         1 MOL     -0.540406
    152 C52        -6.3090   -3.0210   -0.3950 c3        1 MOL     -0.087071
    153 C53        -6.6430   -3.9130   -1.5490 c3        1 MOL     -0.077071
    154 C54        -5.5180   -3.8200   -2.5850 c         1 MOL      0.662971
    155 O22        -5.4110   -2.8050   -3.3180 o         1 MOL     -0.706424
    156 O23        -4.5750   -4.6730   -2.5870 o         1 MOL     -0.706424
    157 H67        -8.8070   -2.8140   -0.4880 hn        1 MOL      0.216602
    158 H68        -6.8090   -2.4130    1.5850 h1        1 MOL      0.060161
    159 H69        -5.3060   -3.3390   -0.0950 hc        1 MOL     -0.015133
    160 H70        -6.0060   -2.0370   -0.7370 hc        1 MOL     -0.015133
    161 H71        -7.5950   -3.6490   -2.0180 hc        1 MOL     -0.001991
    162 H72        -6.6960   -4.9790   -1.3380 hc        1 MOL     -0.001991
    163 N14        -7.5480   -4.5640    2.7810 n         1 MOL     -0.304919
    164 C55        -7.0880   -3.6970    3.8130 c3        1 MOL     -0.051436
    165 H73        -7.8160   -2.9000    3.9690 h1        1 MOL      0.048130
    166 H74        -6.9670   -4.2630    4.7380 h1        1 MOL      0.048130
    167 H75        -6.1310   -3.2620    3.5240 h1        1 MOL      0.048130
    168 H76        -8.0130   -5.3820    3.1480 hn        1 MOL      0.256115
    169 Ca1         5.7890    0.2000    1.2250 Ca        1 MOL      1.690826
    170 O24         4.7580    1.2470    3.4670 oh        1 MOL     -0.751063
    171 H77         5.0380    1.1390    4.3690 ho        1 MOL      0.381091
    172 H78         4.2000    2.0250    3.4750 ho        1 MOL      0.381091
    173 O25         7.6800    1.8790    2.3420 oh        1 MOL     -0.751063
    174 H79         7.4710    2.3690    3.1410 ho        1 MOL      0.381091
    175 H80         8.3690    2.3740    1.9220 ho        1 MOL      0.381091
    176 O26         3.4590   -1.0340    1.7810 oh        1 MOL     -0.751063
    177 H81         3.2510   -1.1020    0.8410 ho        1 MOL      0.381091
    178 H82         2.6110   -0.8790    2.2040 ho        1 MOL      0.381091
@<TRIPOS>BOND
     1    1    2 1   
     2    1    4 1   
     3    1    5 1   
     4    1    6 1   
     5    2    3 2   
     6    2    7 1   
     7    7    8 1   
     8    7   15 1   
     9    8    9 1   
    10    8   11 1   
    11    8   16 1   
    12    9   10 2   
    13    9   19 1   
    14   11   12 1   
    15   11   17 1   
    16   11   18 1   
    17   12   13 1   
    18   12   14 1   
    19   19   20 1   
    20   19   24 1   
    21   20   21 1   
    22   20   23 1   
    23   20   25 1   
    24   21   22 2   
    25   21   29 1   
    26   23   26 1   
    27   23   27 1   
    28   23   28 1   
    29   29   30 1   
    30   29   37 1   
    31   30   31 1   
    32   30   33 1   
    33   30   38 1   
    34   31   32 2   
    35   31   41 1   
    36   33   34 1   
    37   33   39 1   
    38   33   40 1   
    39   34   35 1   
    40   34   36 1   
    41   41   42 1   
    42   41   45 1   
    43   42   43 1   
    44   42   46 1   
    45   42   47 1   
    46   43   44 2   
    47   43   48 1   
    48   48   49 1   
    49   48   56 1   
    50   49   50 1   
    51   49   52 1   
    52   49   57 1   
    53   50   51 2   
    54   50   62 1   
    55   52   53 1   
    56   52   58 1   
    57   52   59 1   
    58   53   54 1   
    59   53   55 2   
    60   54   60 1   
    61   54   61 1   
    62   62   63 1   
    63   62   66 1   
    64   63   64 1   
    65   63   67 1   
    66   63   68 1   
    67   64   65 2   
    68   64   69 1   
    69   69   70 1   
    70   69   76 1   
    71   70   71 1   
    72   70   73 1   
    73   70   77 1   
    74   71   72 2   
    75   71   83 1   
    76   73   74 1   
    77   73   75 1   
    78   73   78 1   
    79   74   80 1   
    80   74   81 1   
    81   74   82 1   
    82   75   79 1   
    83   83   84 1   
    84   83   91 1   
    85   84   85 1   
    86   84   87 1   
    87   84   92 1   
    88   85   86 2   
    89   85  102 1   
    90   87   88 1   
    91   87   89 1   
    92   87   93 1   
    93   88   90 1   
    94   88   94 1   
    95   88   95 1   
    96   89   96 1   
    97   89   97 1   
    98   89   98 1   
    99   90   99 1   
   100   90  100 1   
   101   90  101 1   
   102  102  103 1   
   103  102  110 1   
   104  103  104 1   
   105  103  106 1   
   106  103  111 1   
   107  104  105 2   
   108  104  114 1   
   109  106  107 1   
   110  106  112 1   
   111  106  113 1   
   112  107  108 1   
   113  107  109 1   
   114  114  115 1   
   115  114  125 1   
   116  115  116 1   
   117  115  118 1   
   118  115  126 1   
   119  116  117 2   
   120  116  134 1   
   121  118  119 1   
   122  118  127 1   
   123  118  128 1   
   124  119  120 ar  
   125  119  121 ar  
   126  120  122 ar  
   127  120  129 1   
   128  121  123 ar  
   129  121  130 1   
   130  122  124 ar  
   131  122  131 1   
   132  123  124 ar  
   133  123  132 1   
   134  124  133 1   
   135  134  135 1   
   136  134  140 1   
   137  135  136 1   
   138  135  138 1   
   139  135  141 1   
   140  136  137 2   
   141  136  148 1   
   142  138  139 1   
   143  138  142 1   
   144  138  143 1   
   145  139  140 1   
   146  139  144 1   
   147  139  145 1   
   148  140  146 1   
   149  140  147 1   
   150  148  149 1   
   151  148  157 1   
   152  149  150 1   
   153  149  152 1   
   154  149  158 1   
   155  150  151 2   
   156  150  163 1   
   157  152  153 1   
   158  152  159 1   
   159  152  160 1   
   160  153  154 1   
   161  153  161 1   
   162  153  162 1   
   163  154  155 1   
   164  154  156 1   
   165  163  164 1   
   166  163  168 1   
   167  164  165 1   
   168  164  166 1   
   169  164  167 1   
   170  170  171 1   
   171  170  172 1   
   172  173  174 1   
   173  173  175 1   
   174  176  177 1   
   175  176  178 1   
@<TRIPOS>SUBSTRUCTURE
     1 MOL         1 TEMP              0 ****  ****    0 ROOT
