@<TRIPOS>MOLECULE
MOL
  192   187     1     0     0
SMALL
resp


@<TRIPOS>ATOM
      1 C1          5.8220    1.5260    5.8710 c3        1 MOL     -0.283665
      2 C2          5.1600    1.3600    4.4500 c         1 MOL      0.736200
      3 O1          4.6940    2.3210    3.8470 o         1 MOL     -0.570747
      4 H1          6.6120    2.2750    5.8190 hc        1 MOL      0.069785
      5 H2          5.0660    1.8460    6.5890 hc        1 MOL      0.069785
      6 H3          6.2450    0.5730    6.1890 hc        1 MOL      0.069785
      7 N1          5.1140    0.1020    3.9330 n         1 MOL     -0.690720
      8 C3          4.7390   -0.2500    2.5050 c3        1 MOL      0.785021
      9 C4          3.3030   -0.1630    2.1190 c         1 MOL     -0.087004
     10 O2          2.9830   -0.2580    0.8560 o         1 MOL     -0.179888
     11 C5          5.3240   -1.5990    2.0300 c3        1 MOL     -0.526159
     12 C6          6.7950   -1.8840    2.4140 c         1 MOL      0.804924
     13 O3          7.8220   -1.3250    1.9240 o         1 MOL     -0.725259
     14 O4          6.9670   -2.7400    3.3330 o         1 MOL     -0.725259
     15 H4          5.5480   -0.6010    4.5180 hn        1 MOL      0.294321
     16 H5          5.2860    0.4670    1.8900 h1        1 MOL     -0.054004
     17 H6          5.1220   -1.7610    0.9680 hc        1 MOL      0.067985
     18 H7          4.7950   -2.4870    2.3800 hc        1 MOL      0.067985
     19 N2          2.4170    0.1140    3.0540 n         1 MOL     -0.053748
     20 C7          1.0300   -0.0070    2.7700 c3        1 MOL      0.216757
     21 C8          0.3440    1.3750    2.5300 c         1 MOL      0.173192
     22 O5          0.5850    2.3700    3.1880 o         1 MOL     -0.463123
     23 C9          0.5290   -0.7240    4.0510 c3        1 MOL     -0.333804
     24 C10         1.2030   -2.1090    4.1780 c3        1 MOL      0.364634
     25 C11         0.7520   -2.8380    5.4540 c3        1 MOL     -0.253595
     26 C12         1.2650   -4.2920    5.4750 c3        1 MOL      0.219709
     27 N3          0.5600   -5.0090    6.5410 n4        1 MOL     -0.306536
     28 H8          2.7530    0.5710    3.8870 hn        1 MOL      0.181852
     29 H9          0.8120   -0.6550    1.9270 h1        1 MOL      0.079414
     30 H10        -0.5410   -0.8870    3.9260 hc        1 MOL      0.082053
     31 H11         0.7480   -0.0070    4.8550 hc        1 MOL      0.082053
     32 H12         2.2780   -1.9340    4.1830 hc        1 MOL     -0.084611
     33 H13         0.9930   -2.7690    3.3450 hc        1 MOL     -0.084611
     34 H14        -0.3310   -2.7750    5.3940 hc        1 MOL      0.065268
     35 H15         1.0310   -2.3490    6.3890 hc        1 MOL      0.065268
     36 H16         2.2930   -4.2880    5.8570 hx        1 MOL      0.027781
     37 H17         1.2490   -4.7350    4.4740 hx        1 MOL      0.027781
     38 H18         0.8300   -4.7850    7.4870 hn        1 MOL      0.305453
     39 H19        -0.4090   -4.7570    6.4520 hn        1 MOL      0.305453
     40 H20         0.6570   -6.0140    6.4900 hn        1 MOL      0.305453
     41 N4         -0.5170    1.5470    1.5680 n         1 MOL      0.125827
     42 C13        -0.9220    0.6120    0.5250 c3        1 MOL     -0.396074
     43 C14        -1.4690   -0.7620    1.0090 c         1 MOL      0.633389
     44 O6         -0.9840   -1.8240    0.5920 o         1 MOL     -0.581494
     45 C15        -0.0720    0.6110   -0.7050 c3        1 MOL     -0.295343
     46 C16        -0.2010    1.8250   -1.6470 c         1 MOL      0.858399
     47 O7          0.3520    1.7280   -2.7610 o         1 MOL     -0.753167
     48 O8         -0.8330    2.8610   -1.3240 o         1 MOL     -0.753167
     49 H21        -0.6910    2.5280    1.4040 hn        1 MOL      0.063879
     50 H22        -1.8440    1.0630    0.1620 h1        1 MOL      0.014454
     51 H23        -0.3140   -0.2650   -1.3010 hc        1 MOL      0.125683
     52 H24         0.9580    0.5940   -0.3540 hc        1 MOL      0.125683
     53 N5         -2.3300   -0.7690    2.0200 n         1 MOL     -0.383111
     54 C17        -3.2730    0.2960    2.2690 c3        1 MOL      0.054113
     55 C18        -4.4740   -0.0960    3.1330 c         1 MOL      0.507657
     56 O9         -4.5130   -1.2290    3.6770 o         1 MOL     -0.561573
     57 H25        -2.5510   -1.7150    2.2880 hn        1 MOL      0.253077
     58 H26        -3.7250    0.7190    1.3690 h1        1 MOL      0.060593
     59 H27        -2.7320    1.1260    2.7320 h1        1 MOL      0.060593
     60 N6         -5.4670    0.7810    3.2280 n         1 MOL     -0.536831
     61 C19        -5.5950    2.0980    2.5840 c3        1 MOL      0.145557
     62 C20        -6.7500    2.0350    1.5610 c         1 MOL      0.420872
     63 O10        -7.6810    1.2810    1.6550 o         1 MOL     -0.420707
     64 C21        -5.8180    3.1670    3.7510 c3        1 MOL     -0.116466
     65 C22        -6.8270    2.8020    4.8220 c         1 MOL      0.701806
     66 O11        -7.8030    2.0430    4.6970 o         1 MOL     -0.653516
     67 O12        -6.6850    3.4660    5.8920 o         1 MOL     -0.653516
     68 H28        -6.2570    0.3410    3.6750 hn        1 MOL      0.342384
     69 H29        -4.6470    2.3310    2.0940 h1        1 MOL      0.004721
     70 H30        -6.1500    4.0460    3.1950 hc        1 MOL      0.000935
     71 H31        -4.8520    3.5010    4.1280 hc        1 MOL      0.000935
     72 N7         -6.6370    2.9290    0.5470 n         1 MOL     -0.215955
     73 C23        -7.4890    2.7690   -0.5840 c3        1 MOL     -0.231036
     74 C24        -7.2460    1.5320   -1.5040 c         1 MOL      0.593135
     75 O13        -8.1180    1.1520   -2.2300 o         1 MOL     -0.556046
     76 H32        -5.8750    3.5860    0.5670 hn        1 MOL      0.177693
     77 H33        -7.2800    3.6180   -1.2320 h1        1 MOL      0.115299
     78 H34        -8.5630    2.7880   -0.3750 h1        1 MOL      0.115299
     79 N8         -6.0750    0.9770   -1.4950 n         1 MOL     -0.336565
     80 C25        -5.6740   -0.2530   -2.2910 c3        1 MOL      0.006718
     81 C26        -4.7070   -1.0590   -1.4570 c         1 MOL      0.137204
     82 O14        -3.7430   -0.4950   -0.9440 o         1 MOL     -0.262749
     83 C27        -4.9210    0.1320   -3.5510 c3        1 MOL      0.221059
     84 C28        -5.9500    0.7390   -4.5540 c3        1 MOL     -0.253163
     85 O15        -4.3690   -0.9580   -4.2020 oh        1 MOL     -0.516917
     86 H35        -5.3360    1.5320   -1.0940 hn        1 MOL      0.174054
     87 H36        -6.5450   -0.8400   -2.5680 h1        1 MOL      0.138049
     88 H37        -4.1360    0.8540   -3.3330 h1        1 MOL      0.030038
     89 H38        -4.5260   -0.9040   -5.1450 ho        1 MOL      0.395217
     90 H39        -6.2430    1.7660   -4.3720 hc        1 MOL      0.070690
     91 H40        -5.5210    0.6730   -5.5530 hc        1 MOL      0.070690
     92 H41        -6.8420    0.1040   -4.4980 hc        1 MOL      0.070690
     93 N9         -4.9770   -2.4100   -1.2660 n         1 MOL     -0.154707
     94 C29        -4.1450   -3.1660   -0.3460 c3        1 MOL     -0.056412
     95 C30        -2.9330   -3.8490   -1.0740 c         1 MOL      0.304984
     96 O16        -2.2230   -4.6890   -0.4970 o         1 MOL     -0.533158
     97 C31        -5.1450   -4.2270    0.3390 c3        1 MOL      0.245464
     98 C32        -5.9610   -5.1310   -0.6050 c3        1 MOL     -0.209951
     99 C33        -6.0610   -3.5280    1.3660 c3        1 MOL     -0.268788
    100 C34        -5.0850   -6.1610   -1.3780 c3        1 MOL      0.109265
    101 H42        -5.7300   -2.8490   -1.7610 hn        1 MOL      0.240586
    102 H43        -3.8010   -2.5190    0.4520 h1        1 MOL      0.127656
    103 H44        -4.4190   -4.8360    0.8740 hc        1 MOL      0.001910
    104 H45        -6.6040   -4.6040   -1.3100 hc        1 MOL      0.042949
    105 H46        -6.4840   -5.8560    0.0240 hc        1 MOL      0.042949
    106 H47        -6.6440   -2.7800    0.8290 hc        1 MOL      0.061093
    107 H48        -6.5930   -4.3140    1.9190 hc        1 MOL      0.061093
    108 H49        -5.2860   -3.1350    2.0180 hc        1 MOL      0.061093
    109 H50        -4.4970   -6.8480   -0.7750 hc        1 MOL     -0.021075
    110 H51        -5.6940   -6.8490   -1.9710 hc        1 MOL     -0.021075
    111 H52        -4.4040   -5.6730   -2.0790 hc        1 MOL     -0.021075
    112 N10        -2.6970   -3.4400   -2.3450 n         1 MOL      0.033436
    113 C35        -1.6220   -3.9360   -3.2370 c3        1 MOL     -0.164932
    114 C36        -0.1860   -3.6890   -2.7390 c         1 MOL      0.339136
    115 O17         0.6830   -4.1910   -3.4080 o         1 MOL     -0.562604
    116 C37        -1.7790   -3.3390   -4.6340 c3        1 MOL      0.372513
    117 C38        -1.4030   -1.8570   -4.6650 c3        1 MOL     -0.442738
    118 O18        -3.1390   -3.4120   -5.0290 oh        1 MOL     -0.623027
    119 H53        -3.2100   -2.6620   -2.7400 hn        1 MOL     -0.023391
    120 H54        -1.7510   -5.0120   -3.2970 h1        1 MOL      0.133092
    121 H55        -1.0970   -3.8610   -5.3090 h1        1 MOL      0.050198
    122 H56        -3.5100   -2.5630   -4.7560 ho        1 MOL      0.341838
    123 H57        -1.9380   -1.2790   -3.9090 hc        1 MOL      0.129071
    124 H58        -0.3830   -1.6230   -4.3590 hc        1 MOL      0.129071
    125 H59        -1.5890   -1.4170   -5.6400 hc        1 MOL      0.129071
    126 N11         0.1260   -3.0180   -1.6970 n         1 MOL     -0.023529
    127 C39         1.4970   -2.7170   -1.2780 c3        1 MOL      0.011666
    128 C40         2.3960   -1.8830   -2.2550 c         1 MOL      0.402646
    129 O19         2.1400   -1.7100   -3.4630 o         1 MOL     -0.498855
    130 C41         2.2150   -3.9650   -0.7340 c3        1 MOL      0.361840
    131 C42         1.4170   -4.7430    0.2440 c3        1 MOL     -0.173851
    132 O20         3.4530   -3.6510   -0.1940 oh        1 MOL     -0.646998
    133 H60        -0.6860   -2.6590   -1.2140 hn        1 MOL      0.148217
    134 H61         1.4990   -2.0460   -0.4140 h1        1 MOL      0.049553
    135 H62         2.4030   -4.6460   -1.5680 h1        1 MOL     -0.005689
    136 H63         3.9570   -4.4450    0.0030 ho        1 MOL      0.409106
    137 H64         0.5960   -5.1820   -0.3230 hc        1 MOL      0.040945
    138 H65         2.0310   -5.5600    0.6180 hc        1 MOL      0.040945
    139 H66         1.0360   -4.1270    1.0580 hc        1 MOL      0.040945
    140 N12         3.4410   -1.2460   -1.7150 n         1 MOL     -0.029093
    141 C43         4.4820   -0.5370   -2.5040 c3        1 MOL     -0.270943
    142 C44         4.4490    0.9770   -2.5100 c         1 MOL      0.665943
    143 O21         4.8780    1.5460   -3.4940 o         1 MOL     -0.591145
    144 C45         5.8700   -0.9720   -1.9770 c3        1 MOL     -0.127035
    145 C46         6.2180   -2.4940   -2.2320 c3        1 MOL      0.196904
    146 C47         7.6270   -2.7280   -1.5960 c3        1 MOL     -0.046954
    147 C48         8.2290   -4.1480   -1.8880 c3        1 MOL     -0.020092
    148 N13         8.7870   -4.2490   -3.2590 n4        1 MOL     -0.399388
    149 H67         3.6810   -1.4590   -0.7630 hn        1 MOL     -0.022561
    150 H68         4.3980   -0.8380   -3.5500 h1        1 MOL      0.114855
    151 H69         5.9960   -0.7230   -0.9300 hc        1 MOL      0.071656
    152 H70         6.6480   -0.3560   -2.4180 hc        1 MOL      0.071656
    153 H71         6.2560   -2.6780   -3.3130 hc        1 MOL     -0.043344
    154 H72         5.4730   -3.1800   -1.8270 hc        1 MOL     -0.043344
    155 H73         7.3930   -2.6190   -0.5330 hc        1 MOL      0.053652
    156 H74         8.2940   -1.9350   -1.9420 hc        1 MOL      0.053652
    157 H75         7.4090   -4.8570   -1.7750 hx        1 MOL      0.098949
    158 H76         9.0520   -4.3670   -1.2060 hx        1 MOL      0.098949
    159 H77         8.1090   -4.0760   -3.9970 hn        1 MOL      0.332571
    160 H78         9.5210   -3.5840   -3.4650 hn        1 MOL      0.332571
    161 H79         9.2160   -5.1630   -3.2570 hn        1 MOL      0.332571
    162 N14         3.9600    1.5740   -1.4000 n         1 MOL      0.084614
    163 C49         4.0380    2.9590   -1.1960 c3        1 MOL     -0.789575
    164 C50         5.4880    3.3240   -0.7810 c         1 MOL      0.574501
    165 O22         6.1570    2.5290   -0.0660 o         1 MOL     -0.526806
    166 C51         3.0410    3.3600   -0.1080 c3        1 MOL      1.097465
    167 C52         3.0440    4.7300    0.5390 c3        1 MOL     -1.049624
    168 C53         2.8910    5.8110   -0.5610 c         1 MOL      1.031909
    169 O23         3.8810    6.1280   -1.2560 o         1 MOL     -0.788254
    170 O24         1.8190    6.3570   -0.7310 o         1 MOL     -0.788254
    171 H80         3.7260    0.9470   -0.6390 hn        1 MOL     -0.046296
    172 H81         3.7350    3.4260   -2.1430 h1        1 MOL      0.168724
    173 H82         3.3190    2.6620    0.6920 hc        1 MOL     -0.210567
    174 H83         2.0340    3.2660   -0.4980 hc        1 MOL     -0.210567
    175 H84         3.9990    4.8790    1.0480 hc        1 MOL      0.227063
    176 H85         2.2410    4.8350    1.2710 hc        1 MOL      0.227063
    177 N15         5.9890    4.4430   -1.1990 n         1 MOL     -0.355650
    178 C54         7.3320    4.9520   -0.8890 c3        1 MOL     -0.027125
    179 H86         7.3100    6.0420   -0.8670 h1        1 MOL      0.053560
    180 H87         7.6480    4.5750    0.0830 h1        1 MOL      0.053560
    181 H88         8.0320    4.6190   -1.6550 h1        1 MOL      0.053560
    182 H89         5.2360    4.9740   -1.6100 hn        1 MOL      0.388479
    183 Ca1        -0.5590    5.5370   -1.3010 Ca        1 MOL      1.644286
    184 O25        -2.0150    5.0100   -3.4570 oh        1 MOL     -0.903532
    185 H90        -2.6870    5.3910   -4.0390 ho        1 MOL      0.445642
    186 H91        -1.9960    4.0920   -3.6930 ho        1 MOL      0.445642
    187 O26         1.2220    4.3500   -2.9970 oh        1 MOL     -0.903532
    188 H92         1.3290    3.4000   -2.9940 ho        1 MOL      0.445642
    189 H93         1.0490    4.5630   -3.9190 ho        1 MOL      0.445642
    190 O27        -0.0730    7.2750   -3.3830 oh        1 MOL     -0.903532
    191 H94         0.5350    8.0070   -3.4660 ho        1 MOL      0.445642
    192 H95        -0.5880    7.3090   -4.1960 ho        1 MOL      0.445642
@<TRIPOS>BOND
     1    1    2 1   
     2    1    4 1   
     3    1    5 1   
     4    1    6 1   
     5    2    3 2   
     6    2    7 1   
     7    7    8 1   
     8    7   15 1   
     9    8    9 1   
    10    8   11 1   
    11    8   16 1   
    12    9   10 2   
    13    9   19 1   
    14   11   12 1   
    15   11   17 1   
    16   11   18 1   
    17   12   13 1   
    18   12   14 1   
    19   19   20 1   
    20   19   28 1   
    21   20   21 1   
    22   20   23 1   
    23   20   29 1   
    24   21   22 2   
    25   21   41 1   
    26   23   24 1   
    27   23   30 1   
    28   23   31 1   
    29   24   25 1   
    30   24   32 1   
    31   24   33 1   
    32   25   26 1   
    33   25   34 1   
    34   25   35 1   
    35   26   27 1   
    36   26   36 1   
    37   26   37 1   
    38   27   38 1   
    39   27   39 1   
    40   27   40 1   
    41   41   42 1   
    42   41   49 1   
    43   42   43 1   
    44   42   45 1   
    45   42   50 1   
    46   43   44 2   
    47   43   53 1   
    48   45   46 1   
    49   45   51 1   
    50   45   52 1   
    51   46   47 1   
    52   46   48 1   
    53   53   54 1   
    54   53   57 1   
    55   54   55 1   
    56   54   58 1   
    57   54   59 1   
    58   55   56 2   
    59   55   60 1   
    60   60   61 1   
    61   60   68 1   
    62   61   62 1   
    63   61   64 1   
    64   61   69 1   
    65   62   63 2   
    66   62   72 1   
    67   64   65 1   
    68   64   70 1   
    69   64   71 1   
    70   65   66 1   
    71   65   67 1   
    72   72   73 1   
    73   72   76 1   
    74   73   74 1   
    75   73   77 1   
    76   73   78 1   
    77   74   75 2   
    78   74   79 1   
    79   79   80 1   
    80   79   86 1   
    81   80   81 1   
    82   80   83 1   
    83   80   87 1   
    84   81   82 2   
    85   81   93 1   
    86   83   84 1   
    87   83   85 1   
    88   83   88 1   
    89   84   90 1   
    90   84   91 1   
    91   84   92 1   
    92   85   89 1   
    93   93   94 1   
    94   93  101 1   
    95   94   95 1   
    96   94   97 1   
    97   94  102 1   
    98   95   96 2   
    99   95  112 1   
   100   97   98 1   
   101   97   99 1   
   102   97  103 1   
   103   98  100 1   
   104   98  104 1   
   105   98  105 1   
   106   99  106 1   
   107   99  107 1   
   108   99  108 1   
   109  100  109 1   
   110  100  110 1   
   111  100  111 1   
   112  112  113 1   
   113  112  119 1   
   114  113  114 1   
   115  113  116 1   
   116  113  120 1   
   117  114  115 2   
   118  114  126 1   
   119  116  117 1   
   120  116  118 1   
   121  116  121 1   
   122  117  123 1   
   123  117  124 1   
   124  117  125 1   
   125  118  122 1   
   126  126  127 1   
   127  126  133 1   
   128  127  128 1   
   129  127  130 1   
   130  127  134 1   
   131  128  129 2   
   132  128  140 1   
   133  130  131 1   
   134  130  132 1   
   135  130  135 1   
   136  131  137 1   
   137  131  138 1   
   138  131  139 1   
   139  132  136 1   
   140  140  141 1   
   141  140  149 1   
   142  141  142 1   
   143  141  144 1   
   144  141  150 1   
   145  142  143 2   
   146  142  162 1   
   147  144  145 1   
   148  144  151 1   
   149  144  152 1   
   150  145  146 1   
   151  145  153 1   
   152  145  154 1   
   153  146  147 1   
   154  146  155 1   
   155  146  156 1   
   156  147  148 1   
   157  147  157 1   
   158  147  158 1   
   159  148  159 1   
   160  148  160 1   
   161  148  161 1   
   162  162  163 1   
   163  162  171 1   
   164  163  164 1   
   165  163  166 1   
   166  163  172 1   
   167  164  165 2   
   168  164  177 1   
   169  166  167 1   
   170  166  173 1   
   171  166  174 1   
   172  167  168 1   
   173  167  175 1   
   174  167  176 1   
   175  168  169 1   
   176  168  170 1   
   177  177  178 1   
   178  177  182 1   
   179  178  179 1   
   180  178  180 1   
   181  178  181 1   
   182  184  185 1   
   183  184  186 1   
   184  187  188 1   
   185  187  189 1   
   186  190  191 1   
   187  190  192 1   
@<TRIPOS>SUBSTRUCTURE
     1 MOL         1 TEMP              0 ****  ****    0 ROOT
