@<TRIPOS>MOLECULE
MOL
  178   175     1     0     0
SMALL
resp


@<TRIPOS>ATOM
      1 C1          3.6450   -0.7000   -4.6620 c3        1 MOL     -0.221517
      2 C2          4.4030   -1.6960   -3.9010 c         1 MOL      0.652873
      3 O1          4.3440   -2.9580   -4.1800 o         1 MOL     -0.615781
      4 H1          4.2730   -0.2970   -5.4570 hc        1 MOL      0.058282
      5 H2          2.7620   -1.1680   -5.0960 hc        1 MOL      0.058282
      6 H3          3.3380    0.1090   -3.9970 hc        1 MOL      0.058282
      7 N1          5.3030   -1.2120   -3.0510 n         1 MOL     -0.697044
      8 C3          6.4020   -1.9890   -2.3600 c3        1 MOL      0.443234
      9 C4          6.5810   -1.5240   -0.8410 c         1 MOL      0.589570
     10 O2          6.2360   -0.3830   -0.5110 o         1 MOL     -0.540435
     11 C5          7.6640   -1.8890   -3.1660 c3        1 MOL     -0.041064
     12 C6          8.1750   -0.5010   -3.6240 c         1 MOL      0.636333
     13 O3          9.0200   -0.5170   -4.5870 o         1 MOL     -0.694685
     14 O4          7.7910    0.4550   -2.9440 o         1 MOL     -0.694685
     15 H4          5.3110   -0.2100   -2.9430 hn        1 MOL      0.340950
     16 H5          6.1170   -3.0460   -2.3640 h1        1 MOL     -0.071086
     17 H6          7.6340   -2.5410   -4.0420 hc        1 MOL     -0.041467
     18 H7          8.3740   -2.2980   -2.4490 hc        1 MOL     -0.041467
     19 N2          7.0220   -2.4750    0.0250 n         1 MOL     -0.733258
     20 C7          7.0260   -2.2640    1.4450 c3        1 MOL      0.594870
     21 C8          5.6780   -2.5040    2.0940 c         1 MOL      0.342923
     22 O5          4.8840   -3.3060    1.5820 o         1 MOL     -0.535222
     23 C9          8.1520   -3.2100    2.0120 c3        1 MOL     -0.278605
     24 H8          7.4750   -3.2690   -0.4120 hn        1 MOL      0.329801
     25 H9          7.3300   -1.2280    1.6170 h1        1 MOL     -0.074136
     26 H10         9.1440   -2.8890    1.6970 hc        1 MOL      0.064840
     27 H11         8.1210   -3.2220    3.1000 hc        1 MOL      0.064840
     28 H12         7.9680   -4.2150    1.6240 hc        1 MOL      0.064840
     29 N3          5.3280   -1.6960    3.1110 n         1 MOL     -0.541272
     30 C10         3.9120   -1.6900    3.5480 c3        1 MOL      0.174989
     31 C11         3.3070   -2.9420    4.2750 c         1 MOL      0.852902
     32 O6          3.9670   -3.4770    5.1240 o         1 MOL     -0.580487
     33 C12         3.5960   -0.4470    4.3530 c3        1 MOL     -0.297224
     34 C13         3.9250    0.9230    3.6630 c         1 MOL      0.881607
     35 O7          4.0780    1.8740    4.4340 o         1 MOL     -0.735580
     36 O8          4.0880    0.9660    2.4670 o         1 MOL     -0.735580
     37 H13         5.9290   -0.9430    3.4140 hn        1 MOL      0.305337
     38 H14         3.3410   -1.5400    2.6340 h1        1 MOL     -0.084685
     39 H15         4.0640   -0.6580    5.3150 hc        1 MOL      0.029979
     40 H16         2.5210   -0.3310    4.4890 hc        1 MOL      0.029979
     41 N4          2.0160   -3.2910    3.9980 n         1 MOL     -0.756800
     42 C14         1.3690   -4.4500    4.5370 c3        1 MOL     -0.007955
     43 C15        -0.1990   -4.4770    4.2580 c         1 MOL      0.452143
     44 O9         -0.9040   -5.4620    4.5700 o         1 MOL     -0.575936
     45 H17         1.6030   -2.7520    3.2560 hn        1 MOL      0.406322
     46 H18         1.6950   -4.6380    5.5610 h1        1 MOL      0.101354
     47 H19         1.7210   -5.3390    4.0250 h1        1 MOL      0.101354
     48 N5         -0.8260   -3.4770    3.6520 n         1 MOL     -0.059743
     49 C16        -2.2010   -3.4480    3.1630 c3        1 MOL     -0.166582
     50 C17        -2.4710   -4.2320    1.9360 c         1 MOL      0.580516
     51 O10        -1.6760   -4.2410    0.9790 o         1 MOL     -0.489751
     52 C18        -2.5140   -1.9020    2.8610 c3        1 MOL     -0.314327
     53 C19        -2.2610   -0.9270    4.0120 c         1 MOL      0.539813
     54 N6         -1.1310   -0.1970    3.9330 n         1 MOL     -0.780511
     55 O11        -2.9820   -0.8740    5.0360 o         1 MOL     -0.493411
     56 H20        -0.2270   -2.7200    3.3550 hn        1 MOL      0.087192
     57 H21        -2.9100   -3.7340    3.9350 h1        1 MOL      0.111924
     58 H22        -3.5180   -1.7630    2.4810 hc        1 MOL      0.128835
     59 H23        -1.9330   -1.5200    2.0260 hc        1 MOL      0.128835
     60 H24        -0.5590   -0.3390    3.1090 hn        1 MOL      0.411342
     61 H25        -0.7610    0.3470    4.7020 hn        1 MOL      0.411342
     62 N7         -3.4820   -5.0640    2.0120 n         1 MOL     -0.328290
     63 C20        -4.0180   -5.8280    0.8370 c3        1 MOL     -0.303211
     64 C21        -4.8010   -4.8940   -0.0710 c         1 MOL      0.636317
     65 O12        -5.1380   -3.8040    0.3640 o         1 MOL     -0.498031
     66 H26        -4.0130   -5.2700    2.8410 hn        1 MOL      0.296147
     67 H27        -4.6780   -6.6020    1.2310 h1        1 MOL      0.130399
     68 H28        -3.1800   -6.2290    0.2680 h1        1 MOL      0.130399
     69 N8         -5.2010   -5.3480   -1.2610 n         1 MOL     -0.396805
     70 C22        -6.1260   -4.6940   -2.2340 c3        1 MOL     -0.274956
     71 C23        -5.6110   -3.3130   -2.7370 c         1 MOL      0.633671
     72 O13        -6.4380   -2.4470   -2.9440 o         1 MOL     -0.561586
     73 C24        -6.6970   -5.5830   -3.4160 c3        1 MOL      0.524829
     74 C25        -5.7830   -5.9280   -4.4890 c3        1 MOL     -0.195438
     75 O14        -7.1130   -6.7340   -2.8180 oh        1 MOL     -0.657722
     76 H29        -4.7450   -6.2010   -1.5370 hn        1 MOL      0.242945
     77 H30        -6.9920   -4.3430   -1.6860 h1        1 MOL      0.142245
     78 H31        -7.5210   -5.0750   -3.9210 h1        1 MOL      0.016133
     79 H32        -6.3470   -7.2660   -2.6020 ho        1 MOL      0.380345
     80 H33        -6.1860   -6.6990   -5.1490 hc        1 MOL      0.037467
     81 H34        -5.5790   -5.0060   -5.0250 hc        1 MOL      0.037467
     82 H35        -4.8370   -6.2980   -4.1130 hc        1 MOL      0.037467
     83 N9         -4.2490   -3.0640   -2.7840 n         1 MOL     -0.564753
     84 C26        -3.6680   -1.6890   -3.1500 c3        1 MOL      0.171764
     85 C27        -2.4920   -1.4140   -2.1660 c         1 MOL      0.608104
     86 O15        -1.8130   -2.3430   -1.7040 o         1 MOL     -0.517265
     87 C28        -3.1810   -1.7360   -4.6060 c3        1 MOL     -0.066454
     88 C29        -4.4020   -1.8920   -5.5760 c3        1 MOL      0.068762
     89 C30        -2.4910   -0.4090   -4.9490 c3        1 MOL      0.087477
     90 C31        -5.3640   -0.7250   -5.5060 c3        1 MOL     -0.243320
     91 H36        -3.5890   -3.7990   -2.5700 hn        1 MOL      0.289296
     92 H37        -4.3570   -0.8730   -2.9250 h1        1 MOL      0.089655
     93 H38        -2.5410   -2.6100   -4.7590 hc        1 MOL      0.041123
     94 H39        -5.0050   -2.7720   -5.3540 hc        1 MOL     -0.006448
     95 H40        -3.9960   -2.1700   -6.5560 hc        1 MOL     -0.006448
     96 H41        -3.0840    0.4610   -4.6570 hc        1 MOL     -0.019927
     97 H42        -1.5490   -0.3910   -4.3930 hc        1 MOL     -0.019927
     98 H43        -2.2210   -0.2290   -5.9900 hc        1 MOL     -0.019927
     99 H44        -5.0730    0.0970   -6.1510 hc        1 MOL      0.055221
    100 H45        -6.2530   -1.1670   -5.9720 hc        1 MOL      0.055221
    101 H46        -5.6100   -0.4180   -4.4920 hc        1 MOL      0.055221
    102 N10        -2.3070   -0.0950   -1.9030 n         1 MOL     -0.928718
    103 C32        -1.2330    0.3330   -1.0740 c3        1 MOL      0.843148
    104 C33        -1.6290    1.3570    0.0270 c         1 MOL      0.206059
    105 O16        -0.9360    2.3190    0.3060 o         1 MOL     -0.349725
    106 C34        -0.0960    0.8010   -2.0040 c3        1 MOL     -0.241295
    107 C35         1.2160    0.8850   -1.2250 c         1 MOL      0.653253
    108 O17         1.2720    0.5320   -0.0120 o         1 MOL     -0.689172
    109 O18         2.2530    1.2500   -1.8830 o         1 MOL     -0.689172
    110 H47        -2.8810    0.6280   -2.3090 hn        1 MOL      0.376321
    111 H48        -0.7750   -0.4870   -0.5310 h1        1 MOL     -0.102429
    112 H49        -0.4710    1.7410   -2.4010 hc        1 MOL      0.022914
    113 H50         0.0680    0.0700   -2.7920 hc        1 MOL      0.022914
    114 N11        -2.8460    1.1490    0.6410 n         1 MOL     -0.536232
    115 C36        -3.3740    2.1560    1.4260 c3        1 MOL      0.311570
    116 C37        -3.6270    3.4920    0.6560 c         1 MOL      0.368274
    117 O19        -4.1220    3.4690   -0.4740 o         1 MOL     -0.547069
    118 C38        -4.6710    1.5610    1.9980 c3        1 MOL     -0.259944
    119 C39        -5.0230    2.4190    3.2870 ca        1 MOL      0.161156
    120 C40        -6.0270    3.4480    3.3110 ca        1 MOL     -0.211680
    121 C41        -4.4040    2.0600    4.4650 ca        1 MOL     -0.211680
    122 C42        -6.2650    4.0860    4.4920 ca        1 MOL     -0.030900
    123 C43        -4.6260    2.7020    5.6170 ca        1 MOL     -0.030900
    124 C44        -5.5650    3.7390    5.6580 ca        1 MOL     -0.213141
    125 H51        -3.5070    0.4670    0.2780 hn        1 MOL      0.296643
    126 H52        -2.7410    2.3340    2.2910 h1        1 MOL      0.036485
    127 H53        -4.4070    0.5680    2.3660 hc        1 MOL      0.093007
    128 H54        -5.5220    1.5020    1.3160 hc        1 MOL      0.093007
    129 H55        -6.4800    3.8130    2.4000 ha        1 MOL      0.117847
    130 H56        -3.5250    1.4500    4.3570 ha        1 MOL      0.117847
    131 H57        -6.9430    4.9180    4.5460 ha        1 MOL      0.090052
    132 H58        -4.0670    2.4690    6.5150 ha        1 MOL      0.090052
    133 H59        -5.7370    4.2310    6.6080 ha        1 MOL      0.114389
    134 N12        -3.1020    4.6540    1.1150 n         1 MOL     -0.070699
    135 C45        -3.3190    5.8790    0.3260 c3        1 MOL     -0.020142
    136 C46        -2.3420    6.1560   -0.8230 c         1 MOL      0.375104
    137 O20        -2.5500    7.0920   -1.5920 o         1 MOL     -0.543880
    138 C47        -3.3230    6.9910    1.3990 c3        1 MOL     -0.113363
    139 C48        -2.2320    6.4780    2.3550 c3        1 MOL      0.121793
    140 C49        -2.4840    4.9660    2.3930 c3        1 MOL     -0.302913
    141 H60        -4.2710    5.8260   -0.1930 h1        1 MOL      0.072383
    142 H61        -3.0880    7.9420    0.9240 hc        1 MOL      0.054071
    143 H62        -4.2740    6.8940    1.9230 hc        1 MOL      0.054071
    144 H63        -1.2510    6.7180    1.9380 hc        1 MOL      0.000294
    145 H64        -2.4350    6.9750    3.2950 hc        1 MOL      0.000294
    146 H65        -1.5720    4.3850    2.5260 h1        1 MOL      0.113937
    147 H66        -3.0680    4.6240    3.2510 h1        1 MOL      0.113937
    148 N13        -1.2450    5.4230   -0.9420 n         1 MOL     -0.064910
    149 C50        -0.2140    5.6740   -1.8760 c3        1 MOL     -0.107334
    150 C51        -0.5030    5.5030   -3.3390 c         1 MOL      0.461868
    151 O21         0.0370    6.2310   -4.0930 o         1 MOL     -0.530248
    152 C52         0.9440    4.7130   -1.5250 c3        1 MOL      0.188737
    153 C53         1.7050    5.1120   -0.2360 c3        1 MOL     -0.364386
    154 C54         2.6630    4.0040    0.1920 c         1 MOL      0.708207
    155 O22         3.7050    3.8210   -0.4910 o         1 MOL     -0.714662
    156 O23         2.4940    3.2420    1.2000 o         1 MOL     -0.714662
    157 H67        -1.1350    4.6470   -0.2980 hn        1 MOL      0.191912
    158 H68         0.1750    6.6910   -1.8170 h1        1 MOL      0.088730
    159 H69         1.7300    4.6730   -2.2770 hc        1 MOL     -0.012943
    160 H70         0.4870    3.7250   -1.4190 hc        1 MOL     -0.012943
    161 H71         0.9720    5.3140    0.5440 hc        1 MOL      0.069950
    162 H72         2.2400    6.0080   -0.5280 hc        1 MOL      0.069950
    163 N14        -1.3990    4.5940   -3.7470 n         1 MOL     -0.233622
    164 C55        -1.7190    4.3940   -5.1840 c3        1 MOL     -0.240454
    165 H73        -1.2900    5.2090   -5.7670 h1        1 MOL      0.104469
    166 H74        -1.2990    3.4460   -5.5210 h1        1 MOL      0.104469
    167 H75        -2.8000    4.3810   -5.3170 h1        1 MOL      0.104469
    168 H76        -1.9180    4.1480   -3.0030 hn        1 MOL      0.206347
    169 Ca1         4.1260    1.2350   -0.0630 Ca        1 MOL      1.700361
    170 O24         3.4640   -1.2260   -0.2350 oh        1 MOL     -0.826952
    171 H77         2.5620   -1.4560   -0.0120 ho        1 MOL      0.404538
    172 H78         3.9790   -1.9830    0.0470 ho        1 MOL      0.404538
    173 O25         5.4860    1.6600   -2.2050 oh        1 MOL     -0.826952
    174 H79         5.4120    2.1960   -2.9880 ho        1 MOL      0.404538
    175 H80         6.3400    1.2380   -2.2870 ho        1 MOL      0.404538
    176 O26         6.3510    2.6630    0.6960 oh        1 MOL     -0.826952
    177 H81         7.2890    2.7960    0.5290 ho        1 MOL      0.404538
    178 H82         6.2210    2.9530    1.6010 ho        1 MOL      0.404538
@<TRIPOS>BOND
     1    1    2 1   
     2    1    4 1   
     3    1    5 1   
     4    1    6 1   
     5    2    3 2   
     6    2    7 1   
     7    7    8 1   
     8    7   15 1   
     9    8    9 1   
    10    8   11 1   
    11    8   16 1   
    12    9   10 2   
    13    9   19 1   
    14   11   12 1   
    15   11   17 1   
    16   11   18 1   
    17   12   13 1   
    18   12   14 1   
    19   19   20 1   
    20   19   24 1   
    21   20   21 1   
    22   20   23 1   
    23   20   25 1   
    24   21   22 2   
    25   21   29 1   
    26   23   26 1   
    27   23   27 1   
    28   23   28 1   
    29   29   30 1   
    30   29   37 1   
    31   30   31 1   
    32   30   33 1   
    33   30   38 1   
    34   31   32 2   
    35   31   41 1   
    36   33   34 1   
    37   33   39 1   
    38   33   40 1   
    39   34   35 1   
    40   34   36 1   
    41   41   42 1   
    42   41   45 1   
    43   42   43 1   
    44   42   46 1   
    45   42   47 1   
    46   43   44 2   
    47   43   48 1   
    48   48   49 1   
    49   48   56 1   
    50   49   50 1   
    51   49   52 1   
    52   49   57 1   
    53   50   51 2   
    54   50   62 1   
    55   52   53 1   
    56   52   58 1   
    57   52   59 1   
    58   53   54 1   
    59   53   55 2   
    60   54   60 1   
    61   54   61 1   
    62   62   63 1   
    63   62   66 1   
    64   63   64 1   
    65   63   67 1   
    66   63   68 1   
    67   64   65 2   
    68   64   69 1   
    69   69   70 1   
    70   69   76 1   
    71   70   71 1   
    72   70   73 1   
    73   70   77 1   
    74   71   72 2   
    75   71   83 1   
    76   73   74 1   
    77   73   75 1   
    78   73   78 1   
    79   74   80 1   
    80   74   81 1   
    81   74   82 1   
    82   75   79 1   
    83   83   84 1   
    84   83   91 1   
    85   84   85 1   
    86   84   87 1   
    87   84   92 1   
    88   85   86 2   
    89   85  102 1   
    90   87   88 1   
    91   87   89 1   
    92   87   93 1   
    93   88   90 1   
    94   88   94 1   
    95   88   95 1   
    96   89   96 1   
    97   89   97 1   
    98   89   98 1   
    99   90   99 1   
   100   90  100 1   
   101   90  101 1   
   102  102  103 1   
   103  102  110 1   
   104  103  104 1   
   105  103  106 1   
   106  103  111 1   
   107  104  105 2   
   108  104  114 1   
   109  106  107 1   
   110  106  112 1   
   111  106  113 1   
   112  107  108 1   
   113  107  109 1   
   114  114  115 1   
   115  114  125 1   
   116  115  116 1   
   117  115  118 1   
   118  115  126 1   
   119  116  117 2   
   120  116  134 1   
   121  118  119 1   
   122  118  127 1   
   123  118  128 1   
   124  119  120 ar  
   125  119  121 ar  
   126  120  122 ar  
   127  120  129 1   
   128  121  123 ar  
   129  121  130 1   
   130  122  124 ar  
   131  122  131 1   
   132  123  124 ar  
   133  123  132 1   
   134  124  133 1   
   135  134  135 1   
   136  134  140 1   
   137  135  136 1   
   138  135  138 1   
   139  135  141 1   
   140  136  137 2   
   141  136  148 1   
   142  138  139 1   
   143  138  142 1   
   144  138  143 1   
   145  139  140 1   
   146  139  144 1   
   147  139  145 1   
   148  140  146 1   
   149  140  147 1   
   150  148  149 1   
   151  148  157 1   
   152  149  150 1   
   153  149  152 1   
   154  149  158 1   
   155  150  151 2   
   156  150  163 1   
   157  152  153 1   
   158  152  159 1   
   159  152  160 1   
   160  153  154 1   
   161  153  161 1   
   162  153  162 1   
   163  154  155 1   
   164  154  156 1   
   165  163  164 1   
   166  163  168 1   
   167  164  165 1   
   168  164  166 1   
   169  164  167 1   
   170  170  171 1   
   171  170  172 1   
   172  173  174 1   
   173  173  175 1   
   174  176  177 1   
   175  176  178 1   
@<TRIPOS>SUBSTRUCTURE
     1 MOL         1 TEMP              0 ****  ****    0 ROOT
