@<TRIPOS>MOLECULE
MOL
  192   187     1     0     0
SMALL
resp


@<TRIPOS>ATOM
      1 C1         -6.3400   -3.3110    4.5500 c3        1 MOL     -0.348043
      2 C2         -5.8030   -2.5880    3.3310 c         1 MOL      0.780501
      3 O1         -5.4950   -3.2150    2.3460 o         1 MOL     -0.581859
      4 H1         -5.5070   -3.6510    5.1670 hc        1 MOL      0.090422
      5 H2         -6.9660   -2.6320    5.1290 hc        1 MOL      0.090422
      6 H3         -6.9300   -4.1710    4.2340 hc        1 MOL      0.090422
      7 N1         -5.7030   -1.2080    3.2550 n         1 MOL     -0.615984
      8 C3         -5.2440   -0.5650    2.0320 c3        1 MOL      0.221559
      9 C4         -3.7630   -0.5090    1.8560 c         1 MOL      0.298702
     10 O2         -3.2360    0.3790    1.1170 o         1 MOL     -0.432640
     11 C5         -5.8800    0.8440    1.8460 c3        1 MOL     -0.197349
     12 C6         -6.1880    1.5980    3.1510 c         1 MOL      0.796535
     13 O3         -5.6320    2.6710    3.4130 o         1 MOL     -0.736439
     14 O4         -6.9700    1.0830    4.0140 o         1 MOL     -0.736439
     15 H4         -6.1340   -0.6130    3.9500 hn        1 MOL      0.298404
     16 H5         -5.6800   -1.2130    1.2700 h1        1 MOL      0.120454
     17 H6         -6.8980    0.7420    1.4620 hc        1 MOL      0.006511
     18 H7         -5.3320    1.4900    1.1690 hc        1 MOL      0.006511
     19 N2         -3.0390   -1.4460    2.4540 n         1 MOL     -0.252673
     20 C7         -1.6010   -1.4270    2.5430 c3        1 MOL      0.199914
     21 C8         -0.9380   -2.6120    1.8170 c         1 MOL      0.411165
     22 O5         -1.3520   -3.7290    2.0670 o         1 MOL     -0.488795
     23 C9         -1.1890   -1.2620    4.0460 c3        1 MOL     -0.274656
     24 C10        -2.0080   -0.1090    4.6880 c3        1 MOL      0.090537
     25 C11        -1.8820    0.1740    6.2610 c3        1 MOL     -0.053712
     26 C12        -0.4690    0.3710    6.8930 c3        1 MOL      0.093092
     27 N3          0.2620    1.4940    6.1980 n4        1 MOL     -0.444539
     28 H8         -3.6050   -2.2210    2.7940 hn        1 MOL      0.192852
     29 H9         -1.2320   -0.5030    2.0970 h1        1 MOL      0.054925
     30 H10        -0.1030   -1.1570    4.1130 hc        1 MOL      0.084398
     31 H11        -1.4140   -2.1810    4.5930 hc        1 MOL      0.084398
     32 H12        -3.0800   -0.2820    4.5790 hc        1 MOL     -0.004156
     33 H13        -1.6950    0.8020    4.1900 hc        1 MOL     -0.004156
     34 H14        -2.3360   -0.6820    6.7590 hc        1 MOL      0.055467
     35 H15        -2.4910    1.0420    6.4760 hc        1 MOL      0.055467
     36 H16         0.1650   -0.5080    6.7740 hx        1 MOL      0.061387
     37 H17        -0.6420    0.5460    7.9540 hx        1 MOL      0.061387
     38 H18         0.4310    1.2660    5.2350 hn        1 MOL      0.355102
     39 H19        -0.3090    2.3340    6.2750 hn        1 MOL      0.355102
     40 H20         1.2530    1.5110    6.3830 hn        1 MOL      0.355102
     41 N4          0.1260   -2.4350    1.0280 n         1 MOL     -0.250745
     42 C13         0.8450   -1.2230    0.5080 c3        1 MOL     -0.234985
     43 C14         1.3800   -0.2740    1.5430 c         1 MOL      0.462930
     44 O6          1.0370    0.9030    1.7480 o         1 MOL     -0.527361
     45 C15        -0.0200   -0.5200   -0.5430 c3        1 MOL     -0.209163
     46 C16        -0.2040   -1.3450   -1.7990 c         1 MOL      0.590262
     47 O7          0.3940   -2.4390   -1.9260 o         1 MOL     -0.653244
     48 O8         -0.6980   -0.7810   -2.7920 o         1 MOL     -0.653244
     49 H21         0.5640   -3.2540    0.6270 hn        1 MOL      0.157666
     50 H22         1.7150   -1.4760   -0.0980 h1        1 MOL      0.051744
     51 H23         0.4780    0.4210   -0.7770 hc        1 MOL      0.082726
     52 H24        -0.9720   -0.2960   -0.0670 hc        1 MOL      0.082726
     53 N5          2.3690   -0.7120    2.2600 n         1 MOL     -0.403772
     54 C17         3.2660   -1.7060    1.7760 c3        1 MOL     -0.191055
     55 C18         4.3910   -1.9480    2.8510 c         1 MOL      0.606445
     56 O9          4.4410   -1.2910    3.8740 o         1 MOL     -0.547399
     57 H25         2.7300   -0.0280    2.9070 hn        1 MOL      0.297720
     58 H26         3.7300   -1.2980    0.8770 h1        1 MOL      0.192263
     59 H27         2.7460   -2.6340    1.5300 h1        1 MOL      0.192263
     60 N6          5.1910   -2.9670    2.6780 n         1 MOL     -0.530657
     61 C19         5.4850   -3.7900    1.4570 c3        1 MOL      0.047439
     62 C20         6.3880   -3.0550    0.5070 c         1 MOL      0.404986
     63 O10         7.0600   -2.0560    0.8680 o         1 MOL     -0.435689
     64 C21         5.9470   -5.2350    1.7220 c3        1 MOL      0.026885
     65 C22         7.1180   -5.3350    2.6560 c         1 MOL      0.750413
     66 O11         8.2400   -5.4590    2.1660 o         1 MOL     -0.691268
     67 O12         6.8310   -5.4460    3.8550 o         1 MOL     -0.691268
     68 H28         5.8710   -3.0440    3.4170 hn        1 MOL      0.333572
     69 H29         4.5120   -3.9210    1.0010 h1        1 MOL     -0.027475
     70 H30         6.1010   -5.7470    0.7740 hc        1 MOL     -0.031762
     71 H31         5.1680   -5.8110    2.2150 hc        1 MOL     -0.031762
     72 N7          6.2660   -3.2600   -0.8110 n         1 MOL     -0.257446
     73 C23         7.0120   -2.5410   -1.8180 c3        1 MOL     -0.281482
     74 C24         6.5690   -1.0790   -2.0700 c         1 MOL      0.414641
     75 O13         7.4150   -0.2170   -2.4170 o         1 MOL     -0.566502
     76 H32         5.7480   -4.0620   -1.1340 hn        1 MOL      0.194618
     77 H33         6.9760   -3.0020   -2.8120 h1        1 MOL      0.163716
     78 H34         8.0570   -2.5260   -1.5310 h1        1 MOL      0.163716
     79 N8          5.4160   -0.6160   -1.6670 n         1 MOL     -0.140103
     80 C25         4.8900    0.7380   -1.8400 c3        1 MOL      0.270994
     81 C26         5.0540    1.6950   -0.6210 c         1 MOL      0.223675
     82 O14         4.6390    1.2590    0.4760 o         1 MOL     -0.432844
     83 C27         3.4390    0.6990   -2.3850 c3        1 MOL      0.181581
     84 C28         3.1160   -0.1370   -3.6540 c3        1 MOL     -0.151726
     85 O15         3.0840    1.9960   -2.7130 oh        1 MOL     -0.614581
     86 H35         4.8130   -1.3120   -1.2510 hn        1 MOL      0.034668
     87 H36         5.3620    1.2130   -2.7100 h1        1 MOL      0.029707
     88 H37         2.8570    0.3330   -1.5470 h1        1 MOL      0.163836
     89 H38         2.1270    1.9530   -2.6080 ho        1 MOL      0.441719
     90 H39         3.8030   -0.9910   -3.6730 hc        1 MOL      0.030510
     91 H40         2.0690   -0.3350   -3.8590 hc        1 MOL      0.030510
     92 H41         3.5280    0.3360   -4.5420 hc        1 MOL      0.030510
     93 N9          5.7200    2.8240   -0.7080 n         1 MOL     -0.145798
     94 C29         5.6430    3.8710    0.3160 c3        1 MOL     -0.101009
     95 C30         4.1860    4.3140    0.7680 c         1 MOL      0.362822
     96 O16         4.0970    4.9130    1.8030 o         1 MOL     -0.503568
     97 C31         6.3690    5.0870   -0.1610 c3        1 MOL      0.118624
     98 C32         5.9560    5.4380   -1.6330 c3        1 MOL      0.063791
     99 C33         7.8570    4.8660   -0.0070 c3        1 MOL     -0.200115
    100 C34         6.2460    6.8250   -2.0680 c3        1 MOL     -0.340644
    101 H42         6.2750    2.9990   -1.5350 hn        1 MOL      0.192973
    102 H43         6.2100    3.5510    1.1880 h1        1 MOL      0.108722
    103 H44         6.1540    5.8860    0.5540 hc        1 MOL      0.054470
    104 H45         4.8980    5.2350   -1.8160 hc        1 MOL      0.022896
    105 H46         6.4590    4.7920   -2.3540 hc        1 MOL      0.022896
    106 H47         8.4360    5.6180   -0.5580 hc        1 MOL      0.051276
    107 H48         8.1570    4.9440    1.0350 hc        1 MOL      0.051276
    108 H49         8.1590    3.9060   -0.4370 hc        1 MOL      0.051276
    109 H50         7.2860    6.8720   -2.4110 hc        1 MOL      0.078003
    110 H51         5.7210    7.1130   -2.9770 hc        1 MOL      0.078003
    111 H52         5.9590    7.5420   -1.3060 hc        1 MOL      0.078003
    112 N10         3.1680    4.0740   -0.1000 n         1 MOL     -0.010199
    113 C35         1.8730    4.7820    0.0840 c3        1 MOL      0.044721
    114 C36         0.6940    3.8040   -0.0250 c         1 MOL      0.351164
    115 O17         0.8500    2.7900   -0.6850 o         1 MOL     -0.446723
    116 C37         1.5210    5.8360   -0.9310 c3        1 MOL      0.551967
    117 C38         1.8220    5.6010   -2.4480 c3        1 MOL     -0.526685
    118 O18         2.0960    6.9930   -0.4850 oh        1 MOL     -0.681475
    119 H53         3.3050    3.4920   -0.9140 hn        1 MOL     -0.010372
    120 H54         1.7100    5.3140    1.0230 h1        1 MOL      0.036924
    121 H55         0.4770    6.1140   -0.8150 h1        1 MOL     -0.086179
    122 H56         1.6590    7.7060   -0.9560 ho        1 MOL      0.398500
    123 H57         2.8490    5.2890   -2.6190 hc        1 MOL      0.127617
    124 H58         1.1370    4.8530   -2.8510 hc        1 MOL      0.127617
    125 H59         1.7580    6.6000   -2.8780 hc        1 MOL      0.127617
    126 N11        -0.4750    4.1060    0.5440 n         1 MOL     -0.390900
    127 C39        -1.6860    3.2750    0.4250 c3        1 MOL      0.061049
    128 C40        -2.1490    3.1110   -1.0660 c         1 MOL      0.356516
    129 O19        -1.9140    3.9040   -1.9330 o         1 MOL     -0.518719
    130 C41        -2.9030    3.6770    1.2660 c3        1 MOL      0.156567
    131 C42        -3.5130    5.0340    0.9870 c3        1 MOL     -0.255237
    132 O20        -2.5600    3.6220    2.6520 oh        1 MOL     -0.663186
    133 H60        -0.5370    4.8720    1.2010 hn        1 MOL      0.298105
    134 H61        -1.3350    2.2950    0.7280 h1        1 MOL      0.168099
    135 H62        -3.7020    2.9600    1.1020 h1        1 MOL      0.092423
    136 H63        -3.3620    3.8480    3.1230 ho        1 MOL      0.434678
    137 H64        -2.8110    5.8640    0.8910 hc        1 MOL      0.063096
    138 H65        -4.0600    5.0270    0.0440 hc        1 MOL      0.063096
    139 H66        -4.1950    5.3040    1.7950 hc        1 MOL      0.063096
    140 N12        -2.9400    2.0640   -1.2650 n         1 MOL      0.042381
    141 C43        -3.5220    1.6860   -2.5490 c3        1 MOL     -0.212601
    142 C44        -3.8700    0.1990   -2.6480 c         1 MOL      0.868451
    143 O21        -4.0660   -0.2940   -3.7890 o         1 MOL     -0.680863
    144 C45        -4.7330    2.5710   -2.8490 c3        1 MOL     -0.101465
    145 C46        -5.9470    2.4240   -1.8860 c3        1 MOL      0.130697
    146 C47        -7.0650    3.4020   -2.2620 c3        1 MOL     -0.083203
    147 C48        -6.5960    4.8090   -2.3260 c3        1 MOL      0.180804
    148 N13        -7.6720    5.6940   -2.7100 n4        1 MOL     -0.480619
    149 H67        -3.0660    1.3380   -0.5840 hn        1 MOL      0.056899
    150 H68        -2.7420    1.8880   -3.2790 h1        1 MOL      0.127124
    151 H69        -5.1640    2.3490   -3.8190 hc        1 MOL      0.029091
    152 H70        -4.4760    3.6280   -2.7670 hc        1 MOL      0.029091
    153 H71        -5.7400    2.6370   -0.8420 hc        1 MOL     -0.000362
    154 H72        -6.3740    1.4200   -1.9830 hc        1 MOL     -0.000362
    155 H73        -7.8290    3.3330   -1.4870 hc        1 MOL      0.030550
    156 H74        -7.4860    3.0210   -3.1940 hc        1 MOL      0.030550
    157 H75        -5.8220    4.8580   -3.0900 hx        1 MOL      0.035834
    158 H76        -6.1950    5.0600   -1.3460 hx        1 MOL      0.035834
    159 H77        -8.0270    5.5060   -3.6370 hn        1 MOL      0.353278
    160 H78        -8.4280    5.5550   -2.0560 hn        1 MOL      0.353278
    161 H79        -7.3360    6.6530   -2.7560 hn        1 MOL      0.353278
    162 N14        -3.8780   -0.5750   -1.5620 n         1 MOL     -0.500308
    163 C49        -4.1930   -2.0240   -1.7200 c3        1 MOL     -0.418250
    164 C50        -5.6250   -2.3950   -1.9640 c         1 MOL      0.668672
    165 O22        -6.4680   -2.0640   -1.1660 o         1 MOL     -0.555201
    166 C51        -3.6060   -2.8350   -0.5100 c3        1 MOL      0.967303
    167 C52        -3.5820   -4.3550   -0.6330 c3        1 MOL     -0.441864
    168 C53        -2.8590   -4.8860   -1.8950 c         1 MOL      0.890459
    169 O23        -3.5060   -5.0650   -2.9680 o         1 MOL     -0.826962
    170 O24        -1.6590   -5.2270   -1.7600 o         1 MOL     -0.826962
    171 H80        -3.7060   -0.1370   -0.6720 hn        1 MOL      0.184184
    172 H81        -3.6560   -2.3340   -2.6170 h1        1 MOL      0.089202
    173 H82        -4.4020   -2.6260    0.2050 hc        1 MOL     -0.231937
    174 H83        -2.6090   -2.5240   -0.1780 hc        1 MOL     -0.231937
    175 H84        -4.6000   -4.7440   -0.5660 hc        1 MOL      0.079994
    176 H85        -3.0690   -4.8370    0.1960 hc        1 MOL      0.079994
    177 N15        -5.8930   -3.2040   -2.9920 n         1 MOL     -0.374314
    178 C54        -7.2420   -3.7610   -3.3970 c3        1 MOL     -0.211092
    179 H86        -7.9240   -3.7100   -2.5490 h1        1 MOL      0.101580
    180 H87        -7.6450   -3.1740   -4.2220 h1        1 MOL      0.101580
    181 H88        -7.1280   -4.7990   -3.7100 h1        1 MOL      0.101580
    182 H89        -5.1320   -3.4870   -3.6010 hn        1 MOL      0.377943
    183 Ca1         0.5120   -4.8810   -2.8690 Ca        1 MOL      1.696594
    184 O25        -1.3170   -3.1760   -4.0110 oh        1 MOL     -0.918432
    185 H90        -1.9350   -2.8850   -4.6910 ho        1 MOL      0.453682
    186 H91        -1.2440   -2.4290   -3.4160 ho        1 MOL      0.453682
    187 O26         2.2690   -3.9360   -4.4750 oh        1 MOL     -0.918432
    188 H92         2.1620   -3.8540   -5.4300 ho        1 MOL      0.453682
    189 H93         3.2070   -4.1110   -4.3590 ho        1 MOL      0.453682
    190 O27        -0.1290   -5.7390   -5.4190 oh        1 MOL     -0.918432
    191 H94        -0.7930   -5.2420   -5.8810 ho        1 MOL      0.453682
    192 H95         0.1180   -6.4400   -6.0150 ho        1 MOL      0.453682
@<TRIPOS>BOND
     1    1    2 1   
     2    1    4 1   
     3    1    5 1   
     4    1    6 1   
     5    2    3 2   
     6    2    7 1   
     7    7    8 1   
     8    7   15 1   
     9    8    9 1   
    10    8   11 1   
    11    8   16 1   
    12    9   10 2   
    13    9   19 1   
    14   11   12 1   
    15   11   17 1   
    16   11   18 1   
    17   12   13 1   
    18   12   14 1   
    19   19   20 1   
    20   19   28 1   
    21   20   21 1   
    22   20   23 1   
    23   20   29 1   
    24   21   22 2   
    25   21   41 1   
    26   23   24 1   
    27   23   30 1   
    28   23   31 1   
    29   24   25 1   
    30   24   32 1   
    31   24   33 1   
    32   25   26 1   
    33   25   34 1   
    34   25   35 1   
    35   26   27 1   
    36   26   36 1   
    37   26   37 1   
    38   27   38 1   
    39   27   39 1   
    40   27   40 1   
    41   41   42 1   
    42   41   49 1   
    43   42   43 1   
    44   42   45 1   
    45   42   50 1   
    46   43   44 2   
    47   43   53 1   
    48   45   46 1   
    49   45   51 1   
    50   45   52 1   
    51   46   47 1   
    52   46   48 1   
    53   53   54 1   
    54   53   57 1   
    55   54   55 1   
    56   54   58 1   
    57   54   59 1   
    58   55   56 2   
    59   55   60 1   
    60   60   61 1   
    61   60   68 1   
    62   61   62 1   
    63   61   64 1   
    64   61   69 1   
    65   62   63 2   
    66   62   72 1   
    67   64   65 1   
    68   64   70 1   
    69   64   71 1   
    70   65   66 1   
    71   65   67 1   
    72   72   73 1   
    73   72   76 1   
    74   73   74 1   
    75   73   77 1   
    76   73   78 1   
    77   74   75 2   
    78   74   79 1   
    79   79   80 1   
    80   79   86 1   
    81   80   81 1   
    82   80   83 1   
    83   80   87 1   
    84   81   82 2   
    85   81   93 1   
    86   83   84 1   
    87   83   85 1   
    88   83   88 1   
    89   84   90 1   
    90   84   91 1   
    91   84   92 1   
    92   85   89 1   
    93   93   94 1   
    94   93  101 1   
    95   94   95 1   
    96   94   97 1   
    97   94  102 1   
    98   95   96 2   
    99   95  112 1   
   100   97   98 1   
   101   97   99 1   
   102   97  103 1   
   103   98  100 1   
   104   98  104 1   
   105   98  105 1   
   106   99  106 1   
   107   99  107 1   
   108   99  108 1   
   109  100  109 1   
   110  100  110 1   
   111  100  111 1   
   112  112  113 1   
   113  112  119 1   
   114  113  114 1   
   115  113  116 1   
   116  113  120 1   
   117  114  115 2   
   118  114  126 1   
   119  116  117 1   
   120  116  118 1   
   121  116  121 1   
   122  117  123 1   
   123  117  124 1   
   124  117  125 1   
   125  118  122 1   
   126  126  127 1   
   127  126  133 1   
   128  127  128 1   
   129  127  130 1   
   130  127  134 1   
   131  128  129 2   
   132  128  140 1   
   133  130  131 1   
   134  130  132 1   
   135  130  135 1   
   136  131  137 1   
   137  131  138 1   
   138  131  139 1   
   139  132  136 1   
   140  140  141 1   
   141  140  149 1   
   142  141  142 1   
   143  141  144 1   
   144  141  150 1   
   145  142  143 2   
   146  142  162 1   
   147  144  145 1   
   148  144  151 1   
   149  144  152 1   
   150  145  146 1   
   151  145  153 1   
   152  145  154 1   
   153  146  147 1   
   154  146  155 1   
   155  146  156 1   
   156  147  148 1   
   157  147  157 1   
   158  147  158 1   
   159  148  159 1   
   160  148  160 1   
   161  148  161 1   
   162  162  163 1   
   163  162  171 1   
   164  163  164 1   
   165  163  166 1   
   166  163  172 1   
   167  164  165 2   
   168  164  177 1   
   169  166  167 1   
   170  166  173 1   
   171  166  174 1   
   172  167  168 1   
   173  167  175 1   
   174  167  176 1   
   175  168  169 1   
   176  168  170 1   
   177  177  178 1   
   178  177  182 1   
   179  178  179 1   
   180  178  180 1   
   181  178  181 1   
   182  184  185 1   
   183  184  186 1   
   184  187  188 1   
   185  187  189 1   
   186  190  191 1   
   187  190  192 1   
@<TRIPOS>SUBSTRUCTURE
     1 MOL         1 TEMP              0 ****  ****    0 ROOT
