@<TRIPOS>MOLECULE
MOL
  189   185     1     0     0
SMALL
resp


@<TRIPOS>ATOM
      1 C1         -4.8540    3.3860    3.8620 c3        1 MOL     -0.252547
      2 C2         -5.4440    2.9310    2.5240 c         1 MOL      0.849627
      3 O1         -4.7270    2.8080    1.5600 o         1 MOL     -0.687188
      4 H1         -4.4600    2.5220    4.3980 hc        1 MOL      0.053733
      5 H2         -4.0490    4.0980    3.6810 hc        1 MOL      0.053733
      6 H3         -5.6320    3.8600    4.4600 hc        1 MOL      0.053733
      7 N1         -6.7570    2.6660    2.4710 n         1 MOL     -0.814613
      8 C3         -7.4680    1.5870    1.7360 c3        1 MOL      0.233650
      9 C4         -6.5560    0.3910    1.4300 c         1 MOL      0.128873
     10 O2         -6.0510    0.2200    0.2940 o         1 MOL     -0.315896
     11 C5         -8.2820    2.2090    0.5510 c3        1 MOL     -0.213982
     12 C6         -7.5160    3.2910   -0.2490 c         1 MOL      0.800658
     13 O3         -6.3680    3.1520   -0.7840 o         1 MOL     -0.733813
     14 O4         -8.2250    4.2880   -0.5490 o         1 MOL     -0.733813
     15 H4         -7.3820    3.0320    3.1840 hn        1 MOL      0.374855
     16 H5         -8.2060    1.2240    2.4520 h1        1 MOL      0.040807
     17 H6         -9.2370    2.5960    0.8910 hc        1 MOL      0.061646
     18 H7         -8.4270    1.4370   -0.2130 hc        1 MOL      0.061646
     19 N2         -6.2310   -0.3740    2.4720 n         1 MOL     -0.304923
     20 C7         -5.4520   -1.6340    2.4460 c3        1 MOL      0.060944
     21 C8         -6.0050   -2.8380    1.6630 c         1 MOL      0.308456
     22 O5         -6.0020   -3.9910    2.1490 o         1 MOL     -0.521588
     23 C9         -4.0100   -1.3650    2.0800 c3        1 MOL      0.170935
     24 C10        -3.0810   -2.5710    1.9870 c3        1 MOL      0.069689
     25 C11        -3.3920   -0.2550    3.0370 c3        1 MOL     -0.190985
     26 C12        -2.8370   -3.2410    3.3280 c3        1 MOL     -0.369949
     27 H8         -6.6620   -0.0820    3.3520 hn        1 MOL      0.267493
     28 H9         -5.3890   -1.9070    3.5070 h1        1 MOL      0.046715
     29 H10        -4.0320   -0.8970    1.1000 hc        1 MOL     -0.171971
     30 H11        -2.1070   -2.3100    1.5590 hc        1 MOL      0.043373
     31 H12        -3.3980   -3.2390    1.1850 hc        1 MOL      0.043373
     32 H13        -3.6470    0.7670    2.7750 hc        1 MOL      0.038807
     33 H14        -3.6820   -0.4140    4.0750 hc        1 MOL      0.038807
     34 H15        -2.3080   -0.3040    2.9530 hc        1 MOL      0.038807
     35 H16        -2.7020   -4.3070    3.1320 hc        1 MOL      0.076401
     36 H17        -2.1070   -2.6940    3.9210 hc        1 MOL      0.076401
     37 H18        -3.7670   -3.1720    3.8800 hc        1 MOL      0.076401
     38 N3         -6.4680   -2.5730    0.4010 n         1 MOL     -0.008679
     39 C13        -7.2520   -3.5740   -0.2700 c3        1 MOL      0.037598
     40 C14        -6.4910   -4.7070   -0.9620 c         1 MOL      0.547500
     41 O6         -6.8330   -5.8780   -0.9390 o         1 MOL     -0.594311
     42 C15        -8.3200   -2.9440   -1.1670 c3        1 MOL     -0.088810
     43 C16        -9.1640   -1.8690   -0.4420 c         1 MOL      0.688329
     44 O7         -9.6420   -0.9320   -1.1120 o         1 MOL     -0.716855
     45 O8         -9.4990   -2.1700    0.7270 o         1 MOL     -0.716855
     46 H19        -6.2990   -1.6950   -0.0670 hn        1 MOL      0.103191
     47 H20        -7.9100   -4.1150    0.4100 h1        1 MOL      0.036728
     48 H21        -8.8560   -3.7730   -1.6220 hc        1 MOL      0.009923
     49 H22        -7.7720   -2.4260   -1.9570 hc        1 MOL      0.009923
     50 N4         -5.3040   -4.5390   -1.5770 n         1 MOL     -0.496166
     51 C17        -4.4140   -3.3590   -1.7180 c3        1 MOL      0.076606
     52 C18        -4.7640   -2.5740   -3.0120 c         1 MOL      0.480754
     53 O9         -5.9190   -2.6780   -3.4100 o         1 MOL     -0.532620
     54 H23        -4.8720   -5.3940   -1.9020 hn        1 MOL      0.279129
     55 H24        -3.4040   -3.7680   -1.7490 h1        1 MOL      0.045375
     56 H25        -4.4470   -2.6630   -0.8770 h1        1 MOL      0.045375
     57 N5         -3.9710   -1.6920   -3.6240 n         1 MOL     -0.537815
     58 C19        -2.6340   -1.4190   -3.2600 c3        1 MOL      0.278859
     59 C20        -2.4980   -0.9410   -1.7290 c         1 MOL     -0.084470
     60 O10        -3.4760   -0.3750   -1.1430 o         1 MOL     -0.080413
     61 C21        -2.0640   -0.3250   -4.1880 c3        1 MOL     -0.323444
     62 C22        -2.7090    1.0460   -4.0760 c         1 MOL      0.760849
     63 O11        -3.6250    1.3470   -4.8500 o         1 MOL     -0.698188
     64 O12        -2.3450    1.7390   -3.1200 o         1 MOL     -0.698188
     65 H26        -4.4950   -1.1100   -4.2660 hn        1 MOL      0.362803
     66 H27        -2.0220   -2.3020   -3.4360 h1        1 MOL      0.024106
     67 H28        -2.1870   -0.6340   -5.2210 hc        1 MOL      0.068361
     68 H29        -1.0310   -0.0810   -3.9420 hc        1 MOL      0.068361
     69 N6         -1.3190   -0.9560   -1.0910 n         1 MOL     -0.225898
     70 C23        -0.0580   -1.3920   -1.5510 c3        1 MOL      0.060536
     71 C24         0.3200   -2.7690   -1.0510 c         1 MOL      0.525975
     72 O13        -0.5500   -3.4660   -0.6110 o         1 MOL     -0.513335
     73 H30        -1.3960   -0.7040   -0.1080 hn        1 MOL      0.230086
     74 H31         0.6170   -0.6390   -1.1280 h1        1 MOL      0.030217
     75 H32         0.0120   -1.2900   -2.6360 h1        1 MOL      0.030217
     76 N7          1.6110   -3.0460   -0.9670 n         1 MOL     -0.390716
     77 C25         2.1850   -4.2990   -0.6620 c3        1 MOL     -0.061289
     78 C26         2.7570   -4.4000    0.7240 c         1 MOL      0.427692
     79 O14         3.1380   -5.4480    1.1770 o         1 MOL     -0.530694
     80 C27         3.3670   -4.5690   -1.6000 c3        1 MOL      0.082794
     81 C28         4.7300   -3.8010   -1.2470 c3        1 MOL     -0.159309
     82 C29         5.7640   -3.9400   -2.3770 c         1 MOL      0.652180
     83 N8          5.4400   -3.4380   -3.5660 n         1 MOL     -0.855567
     84 O15         6.7550   -4.6420   -2.2150 o         1 MOL     -0.547368
     85 H33         2.2630   -2.3940   -1.3790 hn        1 MOL      0.215239
     86 H34         1.4310   -5.0920   -0.7350 h1        1 MOL      0.126384
     87 H35         3.1300   -4.2740   -2.6140 hc        1 MOL      0.004038
     88 H36         3.5390   -5.6490   -1.6500 hc        1 MOL      0.004038
     89 H37         5.0950   -4.2870   -0.3440 hc        1 MOL      0.083425
     90 H38         4.5370   -2.7350   -1.0920 hc        1 MOL      0.083425
     91 H39         4.5640   -2.9890   -3.8000 hn        1 MOL      0.382780
     92 H40         6.0800   -3.5760   -4.3320 hn        1 MOL      0.382780
     93 N9          2.7610   -3.3080    1.5380 n         1 MOL     -0.023196
     94 C30         3.2230   -3.1980    2.9110 c3        1 MOL     -0.080130
     95 C31         4.4110   -2.2390    3.1640 c         1 MOL      0.471245
     96 O16         4.5190   -1.7590    4.3030 o         1 MOL     -0.542547
     97 C32         1.9970   -3.0220    3.8140 c3        1 MOL      0.349625
     98 C33         1.0820   -4.2450    3.5730 c3        1 MOL     -0.311197
     99 C34         1.2650   -1.6700    3.6660 c3        1 MOL     -0.311197
    100 H41         2.3940   -2.4580    1.1400 hn        1 MOL      0.071689
    101 H42         3.6670   -4.1660    3.1520 h1        1 MOL      0.076440
    102 H43         2.3810   -3.1530    4.8200 hc        1 MOL     -0.040973
    103 H44         0.5200   -3.9920    2.6710 hc        1 MOL      0.069669
    104 H45         1.6810   -5.1610    3.4950 hc        1 MOL      0.069669
    105 H46         0.3860   -4.2760    4.4030 hc        1 MOL      0.069669
    106 H47         1.9090   -0.9060    4.0860 hc        1 MOL      0.069669
    107 H48         1.0550   -1.4500    2.6180 hc        1 MOL      0.069669
    108 H49         0.3830   -1.7640    4.2950 hc        1 MOL      0.069669
    109 N10         5.2780   -1.9590    2.1850 n         1 MOL     -0.291011
    110 C35         6.5900   -1.2400    2.3580 c3        1 MOL      0.180695
    111 C36         6.9000   -0.1340    1.3970 c         1 MOL      0.453210
    112 O17         8.0160    0.3510    1.4030 o         1 MOL     -0.504976
    113 C37         7.8160   -2.2210    2.5990 c3        1 MOL     -0.226043
    114 C38         7.8220   -3.3200    1.5520 c         1 MOL      0.705094
    115 N11         9.0010   -3.6900    1.0390 n         1 MOL     -0.849719
    116 O18         6.8570   -3.9770    1.2260 o         1 MOL     -0.538591
    117 H50         5.3030   -2.5700    1.3760 hn        1 MOL      0.091897
    118 H51         6.4620   -0.7450    3.3150 h1        1 MOL      0.059073
    119 H52         7.7000   -2.7790    3.5310 hc        1 MOL      0.070196
    120 H53         8.7790   -1.7140    2.6070 hc        1 MOL      0.070196
    121 H54         9.8190   -3.1040    1.1560 hn        1 MOL      0.388143
    122 H55         8.9770   -4.3650    0.2870 hn        1 MOL      0.388143
    123 N12         5.8870    0.4100    0.6880 n         1 MOL     -0.442150
    124 C39         5.9050    1.5470   -0.2540 c3        1 MOL      0.220874
    125 C40         4.5520    2.4240   -0.3090 c         1 MOL      0.423625
    126 O19         3.4390    1.9100   -0.3650 o         1 MOL     -0.436241
    127 C41         6.2980    1.0130   -1.6760 c3        1 MOL      0.032500
    128 C42         7.6880    0.3450   -1.7240 ca        1 MOL     -0.084452
    129 C43         7.6630   -1.0450   -1.6660 ca        1 MOL     -0.108279
    130 C44         8.9190    1.0860   -1.8960 ca        1 MOL     -0.108279
    131 C45         8.8470   -1.7990   -1.6860 ca        1 MOL     -0.264458
    132 C46        10.0690    0.3330   -1.8790 ca        1 MOL     -0.264458
    133 C47        10.0950   -1.0720   -1.7610 ca        1 MOL      0.322326
    134 O20        11.2830   -1.7150   -1.8600 oh        1 MOL     -0.502561
    135 H56         4.9860   -0.0440    0.7540 hn        1 MOL      0.180968
    136 H57         6.6460    2.3140   -0.0280 h1        1 MOL      0.022607
    137 H58         6.3070    1.9010   -2.3000 hc        1 MOL      0.000069
    138 H59         5.4860    0.3620   -1.9970 hc        1 MOL      0.000069
    139 H60         6.7460   -1.6230   -1.5950 ha        1 MOL      0.151667
    140 H61         8.9270    2.1340   -2.1590 ha        1 MOL      0.151667
    141 H62         8.7710   -2.8800   -1.5860 ha        1 MOL      0.132092
    142 H63        10.9720    0.9230   -1.9130 ha        1 MOL      0.132092
    143 H64        11.8620   -1.0420   -2.2220 ho        1 MOL      0.355608
    144 N13         4.7920    3.7700   -0.3650 n         1 MOL     -0.659065
    145 C48         3.7600    4.8260   -0.5920 c3        1 MOL      0.073925
    146 C49         2.6160    5.0950    0.3910 c         1 MOL      0.529832
    147 O21         2.1050    6.1640    0.4690 o         1 MOL     -0.524063
    148 C50         3.1580    4.7580   -2.0020 c3        1 MOL      0.054454
    149 C51         4.1590    4.5380   -3.0940 c3        1 MOL     -0.125200
    150 C52         5.1170    5.7340   -3.3060 c         1 MOL      0.657507
    151 O22         6.3420    5.5490   -3.1250 o         1 MOL     -0.722392
    152 O23         4.5700    6.8690   -3.5930 o         1 MOL     -0.722392
    153 H65         5.7740    3.9940   -0.4700 hn        1 MOL      0.373945
    154 H66         4.3180    5.7690   -0.5730 h1        1 MOL      0.086629
    155 H67         2.6410    5.6980   -2.2050 hc        1 MOL      0.022419
    156 H68         2.3710    4.0080   -2.0800 hc        1 MOL      0.022419
    157 H69         3.6510    4.3600   -4.0460 hc        1 MOL      0.006148
    158 H70         4.7840    3.6610   -2.9060 hc        1 MOL      0.006148
    159 N14         2.2290    4.0380    1.1490 n         1 MOL     -0.305445
    160 C53         1.1280    4.1510    2.1810 c3        1 MOL     -0.220800
    161 C54         1.5300    4.8530    3.5290 c         1 MOL      0.495156
    162 O24         0.6760    5.2330    4.3290 o         1 MOL     -0.525872
    163 C55         0.6400    2.7180    2.4910 c3        1 MOL     -0.231682
    164 C56         0.1880    1.9690    1.2560 c3        1 MOL      0.307999
    165 C57        -1.0330    2.5040    0.6870 c         1 MOL      0.729614
    166 O25        -2.0910    1.8400    0.5230 o         1 MOL     -0.708302
    167 O26        -1.0470    3.6530    0.0880 o         1 MOL     -0.708302
    168 H71         2.7870    3.1950    1.2000 hn        1 MOL      0.249570
    169 H72         0.3580    4.8050    1.7680 h1        1 MOL      0.208211
    170 H73        -0.2640    2.8590    3.0860 hc        1 MOL      0.067427
    171 H74         1.4370    2.1820    3.0110 hc        1 MOL      0.067427
    172 H75         0.0890    0.9290    1.5780 hc        1 MOL     -0.093753
    173 H76         0.9520    2.0200    0.4700 hc        1 MOL     -0.093753
    174 N15         2.8360    5.1770    3.7230 n         1 MOL     -0.240409
    175 C58         3.4830    5.9870    4.6860 c3        1 MOL     -0.080979
    176 H77         4.0250    5.3530    5.3880 h1        1 MOL      0.054383
    177 H78         4.1820    6.6580    4.1880 h1        1 MOL      0.054383
    178 H79         2.7390    6.5730    5.2280 h1        1 MOL      0.054383
    179 H80         3.3960    5.0130    2.9020 hn        1 MOL      0.183328
    180 Ca1        -4.1740    2.0890   -1.0000 Ca        1 MOL      1.674098
    181 O27        -3.1210    4.4480   -0.9620 oh        1 MOL     -0.866198
    182 H81        -2.2740    4.1320   -0.6390 ho        1 MOL      0.408225
    183 H82        -3.2780    5.2580   -0.4680 ho        1 MOL      0.408225
    184 O28        -5.9890    0.7420   -2.7880 oh        1 MOL     -0.866198
    185 H83        -6.3540   -0.1440   -2.7980 ho        1 MOL      0.408225
    186 H84        -6.7080    1.2900   -3.1000 ho        1 MOL      0.408225
    187 O29        -4.7830    3.4640   -3.5570 oh        1 MOL     -0.866198
    188 H85        -4.5240    2.6360   -3.9390 ho        1 MOL      0.408225
    189 H86        -4.3570    4.1310   -4.1020 ho        1 MOL      0.408225
@<TRIPOS>BOND
     1    1    2 1   
     2    1    4 1   
     3    1    5 1   
     4    1    6 1   
     5    2    3 2   
     6    2    7 1   
     7    7    8 1   
     8    7   15 1   
     9    8    9 1   
    10    8   11 1   
    11    8   16 1   
    12    9   10 2   
    13    9   19 1   
    14   11   12 1   
    15   11   17 1   
    16   11   18 1   
    17   12   13 1   
    18   12   14 1   
    19   19   20 1   
    20   19   27 1   
    21   20   21 1   
    22   20   23 1   
    23   20   28 1   
    24   21   22 2   
    25   21   38 1   
    26   23   24 1   
    27   23   25 1   
    28   23   29 1   
    29   24   26 1   
    30   24   30 1   
    31   24   31 1   
    32   25   32 1   
    33   25   33 1   
    34   25   34 1   
    35   26   35 1   
    36   26   36 1   
    37   26   37 1   
    38   38   39 1   
    39   38   46 1   
    40   39   40 1   
    41   39   42 1   
    42   39   47 1   
    43   40   41 2   
    44   40   50 1   
    45   42   43 1   
    46   42   48 1   
    47   42   49 1   
    48   43   44 1   
    49   43   45 1   
    50   50   51 1   
    51   50   54 1   
    52   51   52 1   
    53   51   55 1   
    54   51   56 1   
    55   52   53 2   
    56   52   57 1   
    57   57   58 1   
    58   57   65 1   
    59   58   59 1   
    60   58   61 1   
    61   58   66 1   
    62   59   60 2   
    63   59   69 1   
    64   61   62 1   
    65   61   67 1   
    66   61   68 1   
    67   62   63 1   
    68   62   64 1   
    69   69   70 1   
    70   69   73 1   
    71   70   71 1   
    72   70   74 1   
    73   70   75 1   
    74   71   72 2   
    75   71   76 1   
    76   76   77 1   
    77   76   85 1   
    78   77   78 1   
    79   77   80 1   
    80   77   86 1   
    81   78   79 2   
    82   78   93 1   
    83   80   81 1   
    84   80   87 1   
    85   80   88 1   
    86   81   82 1   
    87   81   89 1   
    88   81   90 1   
    89   82   83 1   
    90   82   84 2   
    91   83   91 1   
    92   83   92 1   
    93   93   94 1   
    94   93  100 1   
    95   94   95 1   
    96   94   97 1   
    97   94  101 1   
    98   95   96 2   
    99   95  109 1   
   100   97   98 1   
   101   97   99 1   
   102   97  102 1   
   103   98  103 1   
   104   98  104 1   
   105   98  105 1   
   106   99  106 1   
   107   99  107 1   
   108   99  108 1   
   109  109  110 1   
   110  109  117 1   
   111  110  111 1   
   112  110  113 1   
   113  110  118 1   
   114  111  112 2   
   115  111  123 1   
   116  113  114 1   
   117  113  119 1   
   118  113  120 1   
   119  114  115 1   
   120  114  116 2   
   121  115  121 1   
   122  115  122 1   
   123  123  124 1   
   124  123  135 1   
   125  124  125 1   
   126  124  127 1   
   127  124  136 1   
   128  125  126 2   
   129  125  144 1   
   130  127  128 1   
   131  127  137 1   
   132  127  138 1   
   133  128  129 ar  
   134  128  130 ar  
   135  129  131 ar  
   136  129  139 1   
   137  130  132 ar  
   138  130  140 1   
   139  131  133 ar  
   140  131  141 1   
   141  132  133 ar  
   142  132  142 1   
   143  133  134 1   
   144  134  143 1   
   145  144  145 1   
   146  144  153 1   
   147  145  146 1   
   148  145  148 1   
   149  145  154 1   
   150  146  147 2   
   151  146  159 1   
   152  148  149 1   
   153  148  155 1   
   154  148  156 1   
   155  149  150 1   
   156  149  157 1   
   157  149  158 1   
   158  150  151 1   
   159  150  152 1   
   160  159  160 1   
   161  159  168 1   
   162  160  161 1   
   163  160  163 1   
   164  160  169 1   
   165  161  162 2   
   166  161  174 1   
   167  163  164 1   
   168  163  170 1   
   169  163  171 1   
   170  164  165 1   
   171  164  172 1   
   172  164  173 1   
   173  165  166 1   
   174  165  167 1   
   175  174  175 1   
   176  174  179 1   
   177  175  176 1   
   178  175  177 1   
   179  175  178 1   
   180  181  182 1   
   181  181  183 1   
   182  184  185 1   
   183  184  186 1   
   184  187  188 1   
   185  187  189 1   
@<TRIPOS>SUBSTRUCTURE
     1 MOL         1 TEMP              0 ****  ****    0 ROOT
