@<TRIPOS>MOLECULE
MOL
  186   183     1     0     0
SMALL
resp


@<TRIPOS>ATOM
      1 C1          4.1670    4.5020   -3.2510 c3        1 MOL     -0.329105
      2 C2          4.9110    3.8260   -2.0940 c         1 MOL      0.770884
      3 O1          4.3350    3.4490   -1.1000 o         1 MOL     -0.664103
      4 H1          4.6530    4.2490   -4.1920 hc        1 MOL      0.078850
      5 H2          3.1330    4.1540   -3.2710 hc        1 MOL      0.078850
      6 H3          4.1840    5.5830   -3.1120 hc        1 MOL      0.078850
      7 N1          6.2190    3.5450   -2.3850 n         1 MOL     -0.627659
      8 C3          7.0110    2.4810   -1.8490 c3        1 MOL      0.150894
      9 C4          6.2160    1.1790   -1.5750 c         1 MOL      0.392475
     10 O2          5.8710    0.8430   -0.4540 o         1 MOL     -0.489911
     11 C5          7.8180    3.0030   -0.6080 c3        1 MOL     -0.267748
     12 C6          6.9750    3.8460    0.4140 c         1 MOL      0.678780
     13 O3          6.0010    3.3060    1.0520 o         1 MOL     -0.687969
     14 O4          7.4390    4.9490    0.8590 o         1 MOL     -0.687969
     15 H4          6.5340    3.9820   -3.2430 hn        1 MOL      0.329378
     16 H5          7.7340    2.3030   -2.6430 h1        1 MOL      0.051322
     17 H6          8.5620    3.7060   -0.9660 hc        1 MOL      0.078989
     18 H7          8.2870    2.1920   -0.0450 hc        1 MOL      0.078989
     19 N2          5.9740    0.3520   -2.6170 n         1 MOL     -0.631003
     20 C7          5.1770   -0.9030   -2.7010 c3        1 MOL      0.377098
     21 C8          5.8110   -2.1090   -1.9790 c         1 MOL      0.319591
     22 O5          5.9850   -3.1360   -2.5890 o         1 MOL     -0.557970
     23 C9          3.6970   -0.6650   -2.4670 c3        1 MOL      0.252598
     24 C10         2.8740   -2.0200   -2.4570 c3        1 MOL      0.058540
     25 C11         3.0930    0.2980   -3.4790 c3        1 MOL     -0.389337
     26 C12         3.0100   -2.8110   -3.7700 c3        1 MOL     -0.297638
     27 H8          6.2160    0.6960   -3.5390 hn        1 MOL      0.306912
     28 H9          5.2200   -1.2620   -3.7340 h1        1 MOL     -0.053112
     29 H10         3.6000   -0.3060   -1.4370 hc        1 MOL      0.007640
     30 H11         1.8090   -1.8920   -2.2720 hc        1 MOL      0.051128
     31 H12         3.3440   -2.6030   -1.6650 hc        1 MOL      0.051128
     32 H13         2.0380    0.4130   -3.2560 hc        1 MOL      0.060313
     33 H14         3.5470    1.2900   -3.4280 hc        1 MOL      0.060313
     34 H15         3.1010   -0.1060   -4.4920 hc        1 MOL      0.060313
     35 H16         2.4710   -3.7630   -3.7390 hc        1 MOL      0.057165
     36 H17         2.6140   -2.2680   -4.6340 hc        1 MOL      0.057165
     37 H18         4.0020   -3.1780   -4.0360 hc        1 MOL      0.057165
     38 N3          6.2760   -1.9020   -0.7860 n         1 MOL     -0.070338
     39 C13         7.3910   -2.6490   -0.1920 c3        1 MOL     -0.052913
     40 C14         7.0980   -4.0630    0.3520 c         1 MOL      0.640194
     41 O6          7.8300   -5.0120    0.0880 o         1 MOL     -0.556332
     42 C15         8.0520   -1.7100    0.8120 c3        1 MOL     -0.322417
     43 C16         9.2070   -2.3430    1.5010 c         1 MOL      0.745933
     44 O7         10.0970   -2.7840    0.7530 o         1 MOL     -0.730963
     45 O8          9.3180   -2.4320    2.7550 o         1 MOL     -0.730963
     46 H19         6.1360   -0.9650   -0.4430 hn        1 MOL      0.237210
     47 H20         8.1570   -2.8000   -0.9580 h1        1 MOL      0.065208
     48 H21         7.3720   -1.4520    1.6280 hc        1 MOL      0.085449
     49 H22         8.2950   -0.7060    0.4620 hc        1 MOL      0.085449
     50 N4          5.9150   -4.3390    0.9520 n         1 MOL     -0.588405
     51 C17         4.8420   -3.4200    1.3130 c3        1 MOL      0.243130
     52 C18         3.7540   -4.1090    2.1590 c         1 MOL      0.527607
     53 O9          3.7610   -5.3310    2.2920 o         1 MOL     -0.577383
     54 H23         5.7740   -5.3180    1.1760 hn        1 MOL      0.294341
     55 H24         4.3690   -3.1300    0.3720 h1        1 MOL      0.000105
     56 H25         5.1760   -2.5360    1.8620 h1        1 MOL      0.000105
     57 N5          2.7980   -3.4160    2.7610 n         1 MOL     -0.471046
     58 C19         2.4880   -1.9670    2.8240 c3        1 MOL      0.427268
     59 C20         2.5200   -1.2650    1.4640 c         1 MOL     -0.178621
     60 O10         3.5730   -0.7330    1.0740 o         1 MOL     -0.548110
     61 C21         3.5000   -1.4140    3.8920 c3        1 MOL     -0.443030
     62 C22         3.1500    0.1060    4.1230 c         1 MOL      0.776098
     63 O11         2.6930    0.8460    3.2320 o         1 MOL     -0.704210
     64 O12         3.3210    0.6600    5.2130 o         1 MOL     -0.704210
     65 H26         2.3260   -4.0450    3.3990 hn        1 MOL      0.259908
     66 H27         1.4910   -1.9730    3.2710 h1        1 MOL      0.053116
     67 H28         4.5180   -1.4590    3.4990 hc        1 MOL      0.098188
     68 H29         3.4060   -1.8200    4.9040 hc        1 MOL      0.098188
     69 N6          1.5040   -1.0750    0.6600 n         1 MOL      0.075280
     70 C23         0.0880   -1.4210    1.0300 c3        1 MOL     -0.174474
     71 C24        -0.3680   -2.7030    0.3710 c         1 MOL      0.472894
     72 O13         0.3620   -3.2910   -0.4740 o         1 MOL     -0.505293
     73 H30         1.6770   -0.6350   -0.2280 hn        1 MOL      0.222097
     74 H31        -0.4750   -0.5560    0.6890 h1        1 MOL      0.104519
     75 H32        -0.0880   -1.6220    2.0850 h1        1 MOL      0.104519
     76 N7         -1.5750   -3.0790    0.7960 n         1 MOL     -0.374697
     77 C25        -2.1910   -4.3230    0.3030 c3        1 MOL     -0.144773
     78 C26        -2.6440   -4.2220   -1.1820 c         1 MOL      0.492870
     79 O14        -2.8910   -5.2410   -1.8620 o         1 MOL     -0.519440
     80 C27        -3.4320   -4.4400    1.2160 c3        1 MOL      0.036259
     81 C28        -4.3920   -5.5230    0.7590 c3        1 MOL     -0.443997
     82 C29        -3.7200   -7.0060    0.7030 c         1 MOL      0.663142
     83 N8         -4.2140   -7.9430   -0.0530 n         1 MOL     -0.752710
     84 O15        -2.7810   -7.3340    1.4420 o         1 MOL     -0.541914
     85 H33        -2.0260   -2.6890    1.6150 hn        1 MOL      0.257709
     86 H34        -1.4700   -5.1300    0.4360 h1        1 MOL      0.182440
     87 H35        -3.9860   -3.5020    1.2950 hc        1 MOL      0.063486
     88 H36        -3.1400   -4.7510    2.2240 hc        1 MOL      0.063486
     89 H37        -4.8220   -5.2820   -0.2150 hc        1 MOL      0.130980
     90 H38        -5.3060   -5.5200    1.3510 hc        1 MOL      0.130980
     91 H39        -5.0630   -7.7360   -0.5670 hn        1 MOL      0.353541
     92 H40        -3.8850   -8.9000    0.0120 hn        1 MOL      0.353541
     93 N9         -2.8770   -3.0430   -1.6670 n         1 MOL     -0.263348
     94 C30        -3.3240   -2.6970   -3.0260 c3        1 MOL      0.009767
     95 C31        -4.7670   -2.1740   -3.0830 c         1 MOL      0.524166
     96 O16        -5.5220   -2.3820   -4.0030 o         1 MOL     -0.559931
     97 C32        -2.3490   -1.6780   -3.7470 c3        1 MOL      0.156671
     98 C33        -1.0360   -2.3640   -4.3210 c3        1 MOL     -0.121179
     99 C34        -1.9450   -0.4200   -3.0930 c3        1 MOL     -0.121179
    100 H41        -2.9010   -2.2120   -1.1010 hn        1 MOL      0.164503
    101 H42        -3.3640   -3.5620   -3.6810 h1        1 MOL      0.071850
    102 H43        -2.8860   -1.3700   -4.6490 hc        1 MOL     -0.007262
    103 H44        -0.4080   -1.6350   -4.8410 hc        1 MOL      0.023868
    104 H45        -0.3850   -2.8650   -3.5990 hc        1 MOL      0.023868
    105 H46        -1.3140   -3.0790   -5.0960 hc        1 MOL      0.023868
    106 H47        -1.2130   -0.5650   -2.3080 hc        1 MOL      0.023868
    107 H48        -1.5590    0.3390   -3.7710 hc        1 MOL      0.023868
    108 H49        -2.8270    0.0890   -2.6800 hc        1 MOL      0.023868
    109 N10        -5.1850   -1.4300   -2.0480 n         1 MOL     -0.403340
    110 C35        -6.5790   -0.9150   -1.8350 c3        1 MOL      0.215056
    111 C36        -6.6440    0.5520   -1.4550 c         1 MOL      0.422425
    112 O17        -7.2410    1.4520   -2.0160 o         1 MOL     -0.523232
    113 C37        -7.3330   -1.7170   -0.7880 c3        1 MOL     -0.402293
    114 C38        -7.5050   -3.2180   -1.1680 c         1 MOL      0.680503
    115 N11        -7.8380   -3.5620   -2.3650 n         1 MOL     -0.773147
    116 O18        -7.4030   -4.1030   -0.3180 o         1 MOL     -0.583102
    117 H50        -4.4680   -1.1240   -1.3950 hn        1 MOL      0.212927
    118 H51        -7.1390   -0.9920   -2.7660 h1        1 MOL      0.029374
    119 H52        -8.3110   -1.2410   -0.6460 hc        1 MOL      0.120310
    120 H53        -6.8280   -1.6860    0.1830 hc        1 MOL      0.120310
    121 H54        -7.7200   -2.8320   -3.0540 hn        1 MOL      0.373087
    122 H55        -7.8710   -4.5620   -2.5260 hn        1 MOL      0.373087
    123 N12        -5.8360    0.8170   -0.4350 n         1 MOL     -0.326340
    124 C39        -5.9030    2.0010    0.3410 c3        1 MOL      0.022484
    125 C40        -4.6000    2.7950    0.3940 c         1 MOL      0.656326
    126 O19        -3.5040    2.2630    0.2420 o         1 MOL     -0.529586
    127 C41        -6.3330    1.6580    1.7670 c3        1 MOL     -0.289150
    128 C42        -7.5760    0.8000    1.8770 ca        1 MOL     -0.000548
    129 C43        -7.5620   -0.2000    2.8760 ca        1 MOL     -0.043159
    130 C44        -8.7260    1.0180    1.1240 ca        1 MOL     -0.043159
    131 C45        -8.6590   -1.0770    2.9300 ca        1 MOL     -0.414988
    132 C46        -9.8640    0.1840    1.2420 ca        1 MOL     -0.414988
    133 C47        -9.8380   -0.8390    2.2300 ca        1 MOL      0.508696
    134 O20       -10.9960   -1.4710    2.5730 oh        1 MOL     -0.541265
    135 H56        -5.1140    0.1580   -0.1930 hn        1 MOL      0.273714
    136 H57        -6.7100    2.6570    0.0140 h1        1 MOL      0.016122
    137 H58        -6.5810    2.6300    2.1760 hc        1 MOL      0.135956
    138 H59        -5.4960    1.1330    2.2310 hc        1 MOL      0.135956
    139 H60        -6.7650   -0.2260    3.5910 ha        1 MOL      0.140648
    140 H61        -8.6140    1.7600    0.3510 ha        1 MOL      0.140648
    141 H62        -8.7070   -1.7520    3.7760 ha        1 MOL      0.167539
    142 H63       -10.7420    0.1960    0.6160 ha        1 MOL      0.167539
    143 H64       -11.6670   -1.4900    1.8890 ho        1 MOL      0.362283
    144 N13        -4.8600    4.0560    0.6340 n         1 MOL     -0.663393
    145 C48        -3.9120    5.1150    1.0560 c3        1 MOL      0.000002
    146 C49        -2.7260    5.4410    0.0430 c         1 MOL      0.550940
    147 O21        -2.2870    6.5810    0.0550 o         1 MOL     -0.556740
    148 C50        -3.2890    4.7580    2.5010 c3        1 MOL      0.078597
    149 C51        -4.3130    4.8400    3.6640 c3        1 MOL     -0.286066
    150 C52        -3.6670    4.2180    4.9090 c         1 MOL      0.661861
    151 O22        -3.8780    3.0310    5.1680 o         1 MOL     -0.698897
    152 O23        -2.7960    4.8400    5.5520 o         1 MOL     -0.698897
    153 H65        -5.8510    4.1910    0.7930 hn        1 MOL      0.397820
    154 H66        -4.4760    6.0370    1.1040 h1        1 MOL      0.070941
    155 H67        -2.5050    5.4860    2.6980 hc        1 MOL      0.075521
    156 H68        -2.8780    3.7530    2.5010 hc        1 MOL      0.075521
    157 H69        -5.1960    4.2890    3.3480 hc        1 MOL      0.008211
    158 H70        -4.6420    5.8780    3.8090 hc        1 MOL      0.008211
    159 N14        -2.2670    4.4600   -0.7390 n         1 MOL     -0.293867
    160 C53        -1.1370    4.7350   -1.6130 c3        1 MOL     -0.441932
    161 C54        -1.5020    5.5940   -2.8190 c         1 MOL      0.659485
    162 O24        -0.6360    6.0910   -3.5200 o         1 MOL     -0.561968
    163 C55        -0.4380    3.4510   -2.1500 c3        1 MOL      0.160896
    164 C56        -0.2060    2.1210   -1.3830 c3        1 MOL      0.514240
    165 C57         0.8560    2.2100   -0.3000 c         1 MOL      0.398500
    166 O25         0.5630    2.8580    0.7280 o         1 MOL     -0.631950
    167 O26         1.9320    1.6140   -0.4290 o         1 MOL     -0.631950
    168 H71        -2.6100    3.5330   -0.5690 hn        1 MOL      0.171073
    169 H72        -0.3930    5.2970   -1.0530 h1        1 MOL      0.220972
    170 H73         0.5350    3.7350   -2.5580 hc        1 MOL     -0.033520
    171 H74        -0.9760    3.2600   -3.0920 hc        1 MOL     -0.033520
    172 H75         0.0830    1.3660   -2.1170 hc        1 MOL     -0.154077
    173 H76        -1.1680    1.7850   -1.0000 hc        1 MOL     -0.154077
    174 N15        -2.7960    5.7730   -3.1190 n         1 MOL     -0.305978
    175 C58        -3.2970    6.6240   -4.1810 c3        1 MOL     -0.241953
    176 H77        -3.0050    6.2090   -5.1460 h1        1 MOL      0.098914
    177 H78        -4.3840    6.6760   -4.1230 h1        1 MOL      0.098914
    178 H79        -2.8780    7.6250   -4.0740 h1        1 MOL      0.098914
    179 H80        -3.4360    5.6230   -2.3620 hn        1 MOL      0.243925
    180 Ca1         3.9270    1.9600    1.2070 Ca        1 MOL      1.753880
    181 O27         5.5940    1.0010    3.1910 oh        1 MOL     -0.800546
    182 H81         5.9820    0.1610    3.4200 ho        1 MOL      0.396945
    183 H82         5.4350    1.4250    4.0360 ho        1 MOL      0.396945
    184 O28         3.3770    4.2330    2.4920 oh        1 MOL     -0.800546
    185 H83         4.1290    4.8100    2.3180 ho        1 MOL      0.396945
    186 H84         2.6110    4.7760    2.3220 ho        1 MOL      0.396945
@<TRIPOS>BOND
     1    1    2 1   
     2    1    4 1   
     3    1    5 1   
     4    1    6 1   
     5    2    3 2   
     6    2    7 1   
     7    7    8 1   
     8    7   15 1   
     9    8    9 1   
    10    8   11 1   
    11    8   16 1   
    12    9   10 2   
    13    9   19 1   
    14   11   12 1   
    15   11   17 1   
    16   11   18 1   
    17   12   13 1   
    18   12   14 1   
    19   19   20 1   
    20   19   27 1   
    21   20   21 1   
    22   20   23 1   
    23   20   28 1   
    24   21   22 2   
    25   21   38 1   
    26   23   24 1   
    27   23   25 1   
    28   23   29 1   
    29   24   26 1   
    30   24   30 1   
    31   24   31 1   
    32   25   32 1   
    33   25   33 1   
    34   25   34 1   
    35   26   35 1   
    36   26   36 1   
    37   26   37 1   
    38   38   39 1   
    39   38   46 1   
    40   39   40 1   
    41   39   42 1   
    42   39   47 1   
    43   40   41 2   
    44   40   50 1   
    45   42   43 1   
    46   42   48 1   
    47   42   49 1   
    48   43   44 1   
    49   43   45 1   
    50   50   51 1   
    51   50   54 1   
    52   51   52 1   
    53   51   55 1   
    54   51   56 1   
    55   52   53 2   
    56   52   57 1   
    57   57   58 1   
    58   57   65 1   
    59   58   59 1   
    60   58   61 1   
    61   58   66 1   
    62   59   60 2   
    63   59   69 1   
    64   61   62 1   
    65   61   67 1   
    66   61   68 1   
    67   62   63 1   
    68   62   64 1   
    69   69   70 1   
    70   69   73 1   
    71   70   71 1   
    72   70   74 1   
    73   70   75 1   
    74   71   72 2   
    75   71   76 1   
    76   76   77 1   
    77   76   85 1   
    78   77   78 1   
    79   77   80 1   
    80   77   86 1   
    81   78   79 2   
    82   78   93 1   
    83   80   81 1   
    84   80   87 1   
    85   80   88 1   
    86   81   82 1   
    87   81   89 1   
    88   81   90 1   
    89   82   83 1   
    90   82   84 2   
    91   83   91 1   
    92   83   92 1   
    93   93   94 1   
    94   93  100 1   
    95   94   95 1   
    96   94   97 1   
    97   94  101 1   
    98   95   96 2   
    99   95  109 1   
   100   97   98 1   
   101   97   99 1   
   102   97  102 1   
   103   98  103 1   
   104   98  104 1   
   105   98  105 1   
   106   99  106 1   
   107   99  107 1   
   108   99  108 1   
   109  109  110 1   
   110  109  117 1   
   111  110  111 1   
   112  110  113 1   
   113  110  118 1   
   114  111  112 2   
   115  111  123 1   
   116  113  114 1   
   117  113  119 1   
   118  113  120 1   
   119  114  115 1   
   120  114  116 2   
   121  115  121 1   
   122  115  122 1   
   123  123  124 1   
   124  123  135 1   
   125  124  125 1   
   126  124  127 1   
   127  124  136 1   
   128  125  126 2   
   129  125  144 1   
   130  127  128 1   
   131  127  137 1   
   132  127  138 1   
   133  128  129 ar  
   134  128  130 ar  
   135  129  131 ar  
   136  129  139 1   
   137  130  132 ar  
   138  130  140 1   
   139  131  133 ar  
   140  131  141 1   
   141  132  133 ar  
   142  132  142 1   
   143  133  134 1   
   144  134  143 1   
   145  144  145 1   
   146  144  153 1   
   147  145  146 1   
   148  145  148 1   
   149  145  154 1   
   150  146  147 2   
   151  146  159 1   
   152  148  149 1   
   153  148  155 1   
   154  148  156 1   
   155  149  150 1   
   156  149  157 1   
   157  149  158 1   
   158  150  151 1   
   159  150  152 1   
   160  159  160 1   
   161  159  168 1   
   162  160  161 1   
   163  160  163 1   
   164  160  169 1   
   165  161  162 2   
   166  161  174 1   
   167  163  164 1   
   168  163  170 1   
   169  163  171 1   
   170  164  165 1   
   171  164  172 1   
   172  164  173 1   
   173  165  166 1   
   174  165  167 1   
   175  174  175 1   
   176  174  179 1   
   177  175  176 1   
   178  175  177 1   
   179  175  178 1   
   180  181  182 1   
   181  181  183 1   
   182  184  185 1   
   183  184  186 1   
@<TRIPOS>SUBSTRUCTURE
     1 MOL         1 TEMP              0 ****  ****    0 ROOT
