@<TRIPOS>MOLECULE
MOL
  189   185     1     0     0
SMALL
resp


@<TRIPOS>ATOM
      1 C1          4.2740    4.4810   -3.0020 c3        1 MOL     -0.366289
      2 C2          5.1820    3.7400   -1.9090 c         1 MOL      0.678203
      3 O1          4.7610    3.2960   -0.7960 o         1 MOL     -0.529848
      4 H1          4.0780    3.8020   -3.8310 hc        1 MOL      0.099625
      5 H2          3.3300    4.7810   -2.5480 hc        1 MOL      0.099625
      6 H3          4.7970    5.3630   -3.3720 hc        1 MOL      0.099625
      7 N1          6.3890    3.3620   -2.3030 n         1 MOL     -0.639448
      8 C3          7.2160    2.2940   -1.7200 c3        1 MOL      0.249695
      9 C4          6.4170    0.9940   -1.6170 c         1 MOL      0.413508
     10 O2          6.0230    0.5820   -0.5690 o         1 MOL     -0.606954
     11 C5          8.0890    2.6970   -0.4760 c3        1 MOL     -0.209275
     12 C6          7.3570    3.5360    0.6090 c         1 MOL      0.744250
     13 O3          6.6200    2.9750    1.4630 o         1 MOL     -0.728497
     14 O4          7.6150    4.7530    0.7730 o         1 MOL     -0.728497
     15 H4          6.7080    3.7700   -3.1630 hn        1 MOL      0.315993
     16 H5          7.9800    2.1530   -2.4860 h1        1 MOL      0.026927
     17 H6          9.0000    3.2290   -0.7770 hc        1 MOL      0.061106
     18 H7          8.5150    1.8450    0.0350 hc        1 MOL      0.061106
     19 N2          5.9990    0.4180   -2.8120 n         1 MOL     -0.560092
     20 C7          5.2620   -0.8510   -3.0060 c3        1 MOL      0.199750
     21 C8          5.8650   -2.1070   -2.3490 c         1 MOL      0.353629
     22 O5          5.7890   -3.1180   -2.9830 o         1 MOL     -0.519157
     23 C9          3.7550   -0.5670   -2.6080 c3        1 MOL      0.146510
     24 C10         2.8020   -1.7240   -2.7860 c3        1 MOL      0.062868
     25 C11         3.2150    0.7100   -3.2670 c3        1 MOL     -0.495315
     26 C12         2.6740   -2.2140   -4.2190 c3        1 MOL     -0.045515
     27 H8          6.2640    0.9040   -3.6610 hn        1 MOL      0.289625
     28 H9          5.3370   -1.0470   -4.0760 h1        1 MOL      0.028316
     29 H10         3.8260   -0.4840   -1.5220 hc        1 MOL     -0.018080
     30 H11         1.8620   -1.4880   -2.2860 hc        1 MOL      0.011440
     31 H12         3.2820   -2.5530   -2.2570 hc        1 MOL      0.011440
     32 H13         3.5820    0.8260   -4.2810 hc        1 MOL      0.114745
     33 H14         2.1270    0.7600   -3.2480 hc        1 MOL      0.114745
     34 H15         3.5210    1.5390   -2.6310 hc        1 MOL      0.114745
     35 H16         3.6120   -2.6860   -4.5230 hc        1 MOL     -0.011082
     36 H17         1.8430   -2.9070   -4.3720 hc        1 MOL     -0.011082
     37 H18         2.3800   -1.3890   -4.8680 hc        1 MOL     -0.011082
     38 N3          6.3280   -2.1560   -1.0990 n         1 MOL     -0.200783
     39 C13         7.0350   -3.2830   -0.4490 c3        1 MOL      0.018333
     40 C14         6.2880   -4.6480   -0.4800 c         1 MOL      0.670959
     41 O6          6.9000   -5.6110   -0.8400 o         1 MOL     -0.609456
     42 C15         7.4890   -2.9340    0.9630 c3        1 MOL     -0.327822
     43 C16         8.3280   -1.5990    1.0510 c         1 MOL      0.759305
     44 O7          8.3390   -0.9500    2.1240 o         1 MOL     -0.721458
     45 O8          8.8650   -1.0680    0.0440 o         1 MOL     -0.721458
     46 H19         6.3280   -1.3100   -0.5360 hn        1 MOL      0.350732
     47 H20         7.9800   -3.3850   -0.9930 h1        1 MOL      0.043727
     48 H21         8.0830   -3.7990    1.2570 hc        1 MOL      0.089356
     49 H22         6.6470   -2.8140    1.6490 hc        1 MOL      0.089356
     50 N4          4.9680   -4.8480   -0.1560 n         1 MOL     -0.640128
     51 C17         4.1940   -3.7900    0.5160 c3        1 MOL      0.408835
     52 C18         2.7700   -4.2640    0.8700 c         1 MOL      0.378438
     53 O9          2.4450   -5.3670    0.3800 o         1 MOL     -0.555875
     54 H23         4.6630   -5.7980   -0.0240 hn        1 MOL      0.341142
     55 H24         4.2070   -2.8380   -0.0190 h1        1 MOL     -0.069893
     56 H25         4.7580   -3.6830    1.4360 h1        1 MOL     -0.069893
     57 N5          2.0470   -3.7100    1.8160 n         1 MOL     -0.289372
     58 C19         2.2130   -2.4700    2.5210 c3        1 MOL      0.185032
     59 C20         2.3580   -1.2220    1.5600 c         1 MOL      0.333989
     60 O10         3.4890   -0.7210    1.4160 o         1 MOL     -0.501475
     61 C21         3.3630   -2.5030    3.5300 c3        1 MOL     -0.283120
     62 C22         3.4500   -3.8800    4.2610 c         1 MOL      0.695509
     63 O11         4.3880   -4.6870    3.8630 o         1 MOL     -0.709052
     64 O12         2.6430   -4.1700    5.1410 o         1 MOL     -0.709052
     65 H26         1.2190   -4.2040    2.0990 hn        1 MOL      0.256810
     66 H27         1.3540   -2.4900    3.1920 h1        1 MOL      0.013578
     67 H28         3.3010   -1.6870    4.2600 hc        1 MOL      0.045157
     68 H29         4.3150   -2.3370    3.0390 hc        1 MOL      0.045157
     69 N6          1.3060   -0.7640    0.9210 n         1 MOL     -0.195281
     70 C23        -0.1080   -1.1750    1.0310 c3        1 MOL     -0.024366
     71 C24        -0.5440   -2.4700    0.3460 c         1 MOL      0.612428
     72 O13         0.0650   -2.9360   -0.5830 o         1 MOL     -0.541515
     73 H30         1.5320   -0.0330    0.2600 hn        1 MOL      0.166734
     74 H31        -0.6490   -0.3730    0.5250 h1        1 MOL      0.025423
     75 H32        -0.3240   -1.2370    2.0970 h1        1 MOL      0.025423
     76 N7         -1.7360   -3.0000    0.7070 n         1 MOL     -0.538416
     77 C25        -2.3180   -4.2370    0.2910 c3        1 MOL      0.068926
     78 C26        -3.0760   -4.1280   -1.0400 c         1 MOL      0.485279
     79 O14        -3.2770   -5.2010   -1.5790 o         1 MOL     -0.534877
     80 C27        -3.1210   -4.8930    1.4200 c3        1 MOL     -0.181116
     81 C28        -4.3450   -4.1270    1.9890 c3        1 MOL     -0.117610
     82 C29        -5.4920   -4.0350    1.0360 c         1 MOL      0.645024
     83 N8         -6.1920   -5.1490    0.7750 n         1 MOL     -0.765102
     84 O15        -5.8720   -2.9800    0.5580 o         1 MOL     -0.564437
     85 H33        -2.1570   -2.5760    1.5210 hn        1 MOL      0.295544
     86 H34        -1.5690   -4.9890    0.0670 h1        1 MOL      0.135921
     87 H35        -2.5330   -5.0350    2.3300 hc        1 MOL      0.072293
     88 H36        -3.5110   -5.8700    1.1460 hc        1 MOL      0.072293
     89 H37        -3.9550   -3.1300    2.2220 hc        1 MOL      0.064693
     90 H38        -4.8180   -4.5970    2.8460 hc        1 MOL      0.064693
     91 H39        -5.9980   -6.0400    1.2140 hn        1 MOL      0.354209
     92 H40        -6.9570   -5.0700    0.1250 hn        1 MOL      0.354209
     93 N9         -3.4130   -2.9390   -1.6150 n         1 MOL     -0.324257
     94 C30        -3.8250   -2.6260   -2.9840 c3        1 MOL      0.060954
     95 C31        -5.2110   -1.9870   -3.1020 c         1 MOL      0.327909
     96 O16        -5.6510   -1.7520   -4.2230 o         1 MOL     -0.557461
     97 C32        -2.7820   -1.7740   -3.6590 c3        1 MOL      0.259177
     98 C33        -1.6050   -2.6380   -4.1220 c3        1 MOL     -0.310054
     99 C34        -2.1600   -0.5280   -3.0400 c3        1 MOL     -0.310054
    100 H41        -3.2380   -2.0910   -1.1080 hn        1 MOL      0.181136
    101 H42        -4.0070   -3.6100   -3.4320 h1        1 MOL      0.092488
    102 H43        -3.2480   -1.6220   -4.6260 hc        1 MOL     -0.021866
    103 H44        -1.0960   -2.1900   -4.9740 hc        1 MOL      0.077135
    104 H45        -0.7470   -2.7970   -3.4690 hc        1 MOL      0.077135
    105 H46        -1.9860   -3.5970   -4.4580 hc        1 MOL      0.077135
    106 H47        -1.5930   -0.7730   -2.1360 hc        1 MOL      0.077135
    107 H48        -1.4960   -0.0450   -3.7480 hc        1 MOL      0.077135
    108 H49        -2.9810    0.1420   -2.7780 hc        1 MOL      0.077135
    109 N10        -5.9200   -1.7110   -2.0340 n         1 MOL     -0.144993
    110 C35        -7.2520   -1.0430   -2.0400 c3        1 MOL      0.039601
    111 C36        -7.3520    0.4210   -1.4480 c         1 MOL      0.455214
    112 O17        -8.4410    0.9620   -1.3510 o         1 MOL     -0.525396
    113 C37        -8.2340   -1.9440   -1.3650 c3        1 MOL     -0.317204
    114 C38        -8.2740   -3.4280   -1.7890 c         1 MOL      0.687661
    115 N11        -8.4510   -3.6560   -3.0850 n         1 MOL     -0.797803
    116 O18        -8.2270   -4.3240   -0.9870 o         1 MOL     -0.545692
    117 H50        -5.5430   -1.9970   -1.1370 hn        1 MOL      0.201551
    118 H51        -7.4850   -0.8380   -3.0850 h1        1 MOL      0.068883
    119 H52        -9.2100   -1.4720   -1.4420 hc        1 MOL      0.105154
    120 H53        -7.9540   -1.9900   -0.3130 hc        1 MOL      0.105154
    121 H54        -8.2790   -2.8860   -3.7160 hn        1 MOL      0.368263
    122 H55        -8.5760   -4.5970   -3.4400 hn        1 MOL      0.368263
    123 N12        -6.3040    0.9660   -0.8740 n         1 MOL     -0.349584
    124 C39        -6.3870    2.2470   -0.2370 c3        1 MOL      0.202707
    125 C40        -5.0430    2.9070    0.0450 c         1 MOL      0.390114
    126 O19        -4.0100    2.2750    0.2330 o         1 MOL     -0.432842
    127 C41        -7.1920    2.1760    0.9720 c3        1 MOL     -0.186453
    128 C42        -6.8650    1.1100    1.9870 ca        1 MOL     -0.038099
    129 C43        -5.9140    1.2720    3.0220 ca        1 MOL     -0.027360
    130 C44        -7.4530   -0.1450    1.8780 ca        1 MOL     -0.027360
    131 C45        -5.7270    0.2650    4.0400 ca        1 MOL     -0.381083
    132 C46        -7.2540   -1.1210    2.8140 ca        1 MOL     -0.381083
    133 C47        -6.3690   -0.9760    3.8940 ca        1 MOL      0.450532
    134 O20        -6.1970   -2.0080    4.7770 oh        1 MOL     -0.586642
    135 H56        -5.4220    0.4770   -0.8510 hn        1 MOL      0.216098
    136 H57        -6.8940    2.9330   -0.9200 h1        1 MOL      0.028009
    137 H58        -8.2520    2.0510    0.7710 hc        1 MOL      0.073083
    138 H59        -7.0800    3.1600    1.4510 hc        1 MOL      0.073083
    139 H60        -5.3730    2.1910    3.1950 ha        1 MOL      0.118075
    140 H61        -8.1040   -0.2590    1.0210 ha        1 MOL      0.118075
    141 H62        -5.1000    0.4250    4.9110 ha        1 MOL      0.172742
    142 H63        -7.7180   -2.0810    2.6220 ha        1 MOL      0.172742
    143 H64        -5.6760   -1.7670    5.5510 ho        1 MOL      0.415087
    144 N13        -5.0540    4.2310    0.2940 n         1 MOL     -0.715867
    145 C48        -3.9620    5.0590    0.9070 c3        1 MOL      0.296755
    146 C49        -2.6760    5.2950    0.0620 c         1 MOL      0.398669
    147 O21        -2.0670    6.3200    0.1480 o         1 MOL     -0.519483
    148 C50        -3.7120    4.6300    2.4040 c3        1 MOL     -0.119815
    149 C51        -2.6420    5.4080    3.2250 c3        1 MOL     -0.391428
    150 C52        -2.7450    5.1260    4.7380 c         1 MOL      0.756353
    151 O22        -3.0600    6.0450    5.5270 o         1 MOL     -0.740218
    152 O23        -2.4460    3.9970    5.2390 o         1 MOL     -0.740218
    153 H65        -5.9520    4.6690    0.1490 hn        1 MOL      0.355955
    154 H66        -4.4710    6.0270    0.9830 h1        1 MOL      0.016704
    155 H67        -3.4860    3.5620    2.3720 hc        1 MOL      0.079515
    156 H68        -4.6000    4.7550    3.0180 hc        1 MOL      0.079515
    157 H69        -2.8220    6.4610    3.0110 hc        1 MOL      0.101488
    158 H70        -1.6980    5.0910    2.7690 hc        1 MOL      0.101488
    159 N14        -2.2790    4.3370   -0.7740 n         1 MOL     -0.273131
    160 C53        -1.1560    4.5010   -1.6610 c3        1 MOL     -0.176186
    161 C54        -1.4440    5.3590   -2.9460 c         1 MOL      0.493701
    162 O24        -0.5390    5.6850   -3.7630 o         1 MOL     -0.515963
    163 C55        -0.4910    3.1510   -2.0090 c3        1 MOL     -0.104006
    164 C56        -0.2080    2.2960   -0.7310 c3        1 MOL      0.158128
    165 C57         1.0790    2.7360    0.0260 c         1 MOL      0.691484
    166 O25         0.9690    3.6950    0.8390 o         1 MOL     -0.694120
    167 O26         2.1050    2.0660    0.0010 o         1 MOL     -0.694120
    168 H71        -2.7560    3.4520   -0.8900 hn        1 MOL      0.223288
    169 H72        -0.4710    5.1440   -1.1050 h1        1 MOL      0.201277
    170 H73         0.4670    3.3570   -2.4810 hc        1 MOL      0.035947
    171 H74        -1.0840    2.5620   -2.7090 hc        1 MOL      0.035947
    172 H75        -0.0890    1.2670   -1.0660 hc        1 MOL     -0.020054
    173 H76        -1.0010    2.2790    0.0310 hc        1 MOL     -0.020054
    174 N15        -2.6960    5.9180   -2.9980 n         1 MOL     -0.291360
    175 C58        -3.2110    6.6690   -4.1890 c3        1 MOL     -0.211735
    176 H77        -4.2990    6.7210   -4.1420 h1        1 MOL      0.091748
    177 H78        -2.7990    7.6790   -4.1880 h1        1 MOL      0.091748
    178 H79        -2.9110    6.1540   -5.1010 h1        1 MOL      0.091748
    179 H80        -3.3520    5.9490   -2.2300 hn        1 MOL      0.253394
    180 Ca1         4.4570    1.7270    1.2480 Ca        1 MOL      1.758992
    181 O27         3.4950    4.1860    1.8140 oh        1 MOL     -0.905659
    182 H81         3.3490    4.5550    2.6850 ho        1 MOL      0.427900
    183 H82         2.6210    4.1400    1.4220 ho        1 MOL      0.427900
    184 O28         5.8830    0.2680    2.9090 oh        1 MOL     -0.905659
    185 H83         5.8100    0.0430    3.8340 ho        1 MOL      0.427900
    186 H84         6.6520   -0.2100    2.6030 ho        1 MOL      0.427900
    187 O29         3.0660    1.8530    3.4970 oh        1 MOL     -0.905659
    188 H85         2.5480    1.1720    3.9250 ho        1 MOL      0.427900
    189 H86         2.8200    2.6670    3.9360 ho        1 MOL      0.427900
@<TRIPOS>BOND
     1    1    2 1   
     2    1    4 1   
     3    1    5 1   
     4    1    6 1   
     5    2    3 2   
     6    2    7 1   
     7    7    8 1   
     8    7   15 1   
     9    8    9 1   
    10    8   11 1   
    11    8   16 1   
    12    9   10 2   
    13    9   19 1   
    14   11   12 1   
    15   11   17 1   
    16   11   18 1   
    17   12   13 1   
    18   12   14 1   
    19   19   20 1   
    20   19   27 1   
    21   20   21 1   
    22   20   23 1   
    23   20   28 1   
    24   21   22 2   
    25   21   38 1   
    26   23   24 1   
    27   23   25 1   
    28   23   29 1   
    29   24   26 1   
    30   24   30 1   
    31   24   31 1   
    32   25   32 1   
    33   25   33 1   
    34   25   34 1   
    35   26   35 1   
    36   26   36 1   
    37   26   37 1   
    38   38   39 1   
    39   38   46 1   
    40   39   40 1   
    41   39   42 1   
    42   39   47 1   
    43   40   41 2   
    44   40   50 1   
    45   42   43 1   
    46   42   48 1   
    47   42   49 1   
    48   43   44 1   
    49   43   45 1   
    50   50   51 1   
    51   50   54 1   
    52   51   52 1   
    53   51   55 1   
    54   51   56 1   
    55   52   53 2   
    56   52   57 1   
    57   57   58 1   
    58   57   65 1   
    59   58   59 1   
    60   58   61 1   
    61   58   66 1   
    62   59   60 2   
    63   59   69 1   
    64   61   62 1   
    65   61   67 1   
    66   61   68 1   
    67   62   63 1   
    68   62   64 1   
    69   69   70 1   
    70   69   73 1   
    71   70   71 1   
    72   70   74 1   
    73   70   75 1   
    74   71   72 2   
    75   71   76 1   
    76   76   77 1   
    77   76   85 1   
    78   77   78 1   
    79   77   80 1   
    80   77   86 1   
    81   78   79 2   
    82   78   93 1   
    83   80   81 1   
    84   80   87 1   
    85   80   88 1   
    86   81   82 1   
    87   81   89 1   
    88   81   90 1   
    89   82   83 1   
    90   82   84 2   
    91   83   91 1   
    92   83   92 1   
    93   93   94 1   
    94   93  100 1   
    95   94   95 1   
    96   94   97 1   
    97   94  101 1   
    98   95   96 2   
    99   95  109 1   
   100   97   98 1   
   101   97   99 1   
   102   97  102 1   
   103   98  103 1   
   104   98  104 1   
   105   98  105 1   
   106   99  106 1   
   107   99  107 1   
   108   99  108 1   
   109  109  110 1   
   110  109  117 1   
   111  110  111 1   
   112  110  113 1   
   113  110  118 1   
   114  111  112 2   
   115  111  123 1   
   116  113  114 1   
   117  113  119 1   
   118  113  120 1   
   119  114  115 1   
   120  114  116 2   
   121  115  121 1   
   122  115  122 1   
   123  123  124 1   
   124  123  135 1   
   125  124  125 1   
   126  124  127 1   
   127  124  136 1   
   128  125  126 2   
   129  125  144 1   
   130  127  128 1   
   131  127  137 1   
   132  127  138 1   
   133  128  129 ar  
   134  128  130 ar  
   135  129  131 ar  
   136  129  139 1   
   137  130  132 ar  
   138  130  140 1   
   139  131  133 ar  
   140  131  141 1   
   141  132  133 ar  
   142  132  142 1   
   143  133  134 1   
   144  134  143 1   
   145  144  145 1   
   146  144  153 1   
   147  145  146 1   
   148  145  148 1   
   149  145  154 1   
   150  146  147 2   
   151  146  159 1   
   152  148  149 1   
   153  148  155 1   
   154  148  156 1   
   155  149  150 1   
   156  149  157 1   
   157  149  158 1   
   158  150  151 1   
   159  150  152 1   
   160  159  160 1   
   161  159  168 1   
   162  160  161 1   
   163  160  163 1   
   164  160  169 1   
   165  161  162 2   
   166  161  174 1   
   167  163  164 1   
   168  163  170 1   
   169  163  171 1   
   170  164  165 1   
   171  164  172 1   
   172  164  173 1   
   173  165  166 1   
   174  165  167 1   
   175  174  175 1   
   176  174  179 1   
   177  175  176 1   
   178  175  177 1   
   179  175  178 1   
   180  181  182 1   
   181  181  183 1   
   182  184  185 1   
   183  184  186 1   
   184  187  188 1   
   185  187  189 1   
@<TRIPOS>SUBSTRUCTURE
     1 MOL         1 TEMP              0 ****  ****    0 ROOT
