@<TRIPOS>MOLECULE
MOL
  192   187     1     0     0
SMALL
resp


@<TRIPOS>ATOM
      1 C1          9.4640    1.1530    1.7000 c3        1 MOL     -0.537444
      2 C2          8.3970    0.3430    1.0070 c         1 MOL      0.794768
      3 O1          7.4660   -0.0130    1.7010 o         1 MOL     -0.683062
      4 H1          9.1360    1.3970    2.7100 hc        1 MOL      0.140249
      5 H2         10.3870    0.5750    1.7480 hc        1 MOL      0.140249
      6 H3          9.6400    2.0740    1.1440 hc        1 MOL      0.140249
      7 N1          8.4450    0.2130   -0.3430 n         1 MOL     -0.648213
      8 C3          7.4120   -0.2010   -1.2600 c3        1 MOL      0.606275
      9 C4          7.1820   -1.7060   -1.1300 c         1 MOL      0.199045
     10 O2          7.5680   -2.3550   -2.0870 o         1 MOL     -0.453596
     11 C5          7.5870    0.4110   -2.6460 c3        1 MOL     -0.300773
     12 C6          9.0010    0.1740   -3.2970 c         1 MOL      0.668791
     13 O3          9.0520   -0.4070   -4.3850 o         1 MOL     -0.619540
     14 O4         10.0670    0.4270   -2.7460 o         1 MOL     -0.619540
     15 H4          9.2980    0.4880   -0.8170 hn        1 MOL      0.218103
     16 H5          6.4480    0.1890   -0.9340 h1        1 MOL     -0.215833
     17 H6          7.4590    1.4790   -2.4950 hc        1 MOL      0.079693
     18 H7          6.7180    0.0940   -3.2190 hc        1 MOL      0.079693
     19 N2          6.6100   -2.1710   -0.0300 n         1 MOL     -0.021865
     20 C7          6.3500   -3.5780    0.1830 c3        1 MOL      0.034506
     21 C8          4.7850   -3.8270   -0.0510 c         1 MOL      0.505189
     22 O5          4.4170   -4.8530   -0.6240 o         1 MOL     -0.554158
     23 C9          6.7420   -3.9990    1.6180 c3        1 MOL     -0.080511
     24 C10         8.2840   -3.9580    1.6570 c3        1 MOL     -0.020740
     25 C11         8.8030   -4.3110    3.1060 c3        1 MOL     -0.139780
     26 C12        10.3490   -4.3230    2.9680 c3        1 MOL      0.084619
     27 N3         11.0250   -4.7730    4.2200 n4        1 MOL     -0.311125
     28 H8          6.5470   -1.5230    0.7380 hn        1 MOL      0.198969
     29 H9          6.9190   -4.1210   -0.5730 h1        1 MOL      0.053290
     30 H10         6.4510   -5.0460    1.7080 hc        1 MOL      0.038892
     31 H11         6.2560   -3.4330    2.4050 hc        1 MOL      0.038892
     32 H12         8.6290   -2.9520    1.4310 hc        1 MOL      0.038023
     33 H13         8.7160   -4.6270    0.9080 hc        1 MOL      0.038023
     34 H14         8.4180   -5.2710    3.4280 hc        1 MOL      0.064389
     35 H15         8.4730   -3.5770    3.8440 hc        1 MOL      0.064389
     36 H16        10.6940   -3.3790    2.5540 hx        1 MOL      0.071906
     37 H17        10.6700   -4.9450    2.1260 hx        1 MOL      0.071906
     38 H18        11.9650   -4.9970    3.9330 hn        1 MOL      0.263279
     39 H19        11.0690   -4.1390    4.9930 hn        1 MOL      0.263279
     40 H20        10.6690   -5.6700    4.5290 hn        1 MOL      0.263279
     41 N4          3.8560   -2.9730    0.2610 n         1 MOL     -0.520136
     42 C13         3.9340   -1.5940    0.8390 c3        1 MOL      0.157736
     43 C14         3.9320   -0.4920   -0.3010 c         1 MOL      0.559951
     44 O6          3.9030   -0.8060   -1.4940 o         1 MOL     -0.534461
     45 C15         2.6760   -1.2980    1.7220 c3        1 MOL     -0.229552
     46 C16         1.3460   -1.6720    1.1430 c         1 MOL      0.731327
     47 O7          0.6900   -0.7370    0.5720 o         1 MOL     -0.699331
     48 O8          0.9280   -2.8360    1.2070 o         1 MOL     -0.699331
     49 H21         2.9900   -3.2930   -0.1390 hn        1 MOL      0.354407
     50 H22         4.8700   -1.4290    1.3660 h1        1 MOL      0.012616
     51 H23         2.7540   -0.2350    1.9590 hc        1 MOL      0.026622
     52 H24         2.8750   -1.9070    2.5980 hc        1 MOL      0.026622
     53 N5          4.1490    0.7760    0.0730 n         1 MOL     -0.284683
     54 C17         4.3470    1.9050   -0.8000 c3        1 MOL      0.064201
     55 C18         2.9530    2.6190   -0.9330 c         1 MOL      0.274891
     56 O9          1.9000    2.1240   -0.4830 o         1 MOL     -0.413836
     57 H25         4.3170    0.9000    1.0600 hn        1 MOL      0.251758
     58 H26         4.7370    1.7450   -1.8100 h1        1 MOL      0.056008
     59 H27         5.0540    2.5620   -0.3070 h1        1 MOL      0.056008
     60 N6          3.0500    3.6850   -1.7120 n         1 MOL     -0.341369
     61 C19         1.9740    4.6210   -2.0660 c3        1 MOL      0.265569
     62 C20         2.5140    6.0230   -1.8900 c         1 MOL      0.404317
     63 O10         3.7240    6.2020   -1.9290 o         1 MOL     -0.527343
     64 C21         1.5890    4.2720   -3.5350 c3        1 MOL     -0.090655
     65 C22         0.7820    2.9610   -3.5900 c         1 MOL      0.598097
     66 O11         1.0280    2.1820   -4.4970 o         1 MOL     -0.659007
     67 O12        -0.1000    2.7310   -2.7160 o         1 MOL     -0.659007
     68 H28         4.0030    3.9650   -1.9030 hn        1 MOL      0.252051
     69 H29         1.1240    4.5570   -1.3960 h1        1 MOL      0.011559
     70 H30         2.5100    4.2910   -4.1180 hc        1 MOL      0.030027
     71 H31         0.9750    5.0930   -3.8850 hc        1 MOL      0.030027
     72 N7          1.7270    7.0910   -1.7180 n         1 MOL     -0.438196
     73 C23         0.2510    7.0090   -1.7760 c3        1 MOL     -0.052836
     74 C24        -0.3890    6.4840   -0.5250 c         1 MOL      0.652648
     75 O13        -0.0110    6.6490    0.6360 o         1 MOL     -0.542010
     76 H32         2.1980    7.9090   -1.3640 hn        1 MOL      0.322493
     77 H33        -0.0040    6.3710   -2.6150 h1        1 MOL      0.076345
     78 H34        -0.1380    8.0040   -1.9770 h1        1 MOL      0.076345
     79 N8         -1.5000    5.7830   -0.7410 n         1 MOL     -0.697124
     80 C25        -2.3270    5.1080    0.3990 c3        1 MOL      0.139871
     81 C26        -1.7670    3.7860    0.8880 c         1 MOL      0.445712
     82 O14        -1.0820    3.1320    0.1150 o         1 MOL     -0.500126
     83 C27        -3.7850    4.9020   -0.1770 c3        1 MOL      0.271254
     84 C28        -4.7180    4.4480    0.9720 c3        1 MOL     -0.415359
     85 O15        -3.8750    3.8650   -1.1370 oh        1 MOL     -0.626082
     86 H35        -1.9570    5.8270   -1.6300 hn        1 MOL      0.342453
     87 H36        -2.5000    5.7420    1.2700 h1        1 MOL      0.061576
     88 H37        -4.1410    5.8290   -0.6300 h1        1 MOL      0.041468
     89 H38        -4.6160    4.1640   -1.6750 ho        1 MOL      0.426024
     90 H39        -4.6290    5.1490    1.8060 hc        1 MOL      0.101824
     91 H40        -5.7170    4.5470    0.5640 hc        1 MOL      0.101824
     92 H41        -4.5930    3.4170    1.2970 hc        1 MOL      0.101824
     93 N9         -2.0040    3.4440    2.1460 n         1 MOL     -0.308403
     94 C29        -1.3030    2.3720    2.8450 c3        1 MOL      0.023025
     95 C30        -1.7340    0.9500    2.5240 c         1 MOL      0.257987
     96 O16        -1.6040    0.5340    1.3680 o         1 MOL     -0.435134
     97 C31         0.2820    2.4420    2.7510 c3        1 MOL      0.518952
     98 C32         0.8380    3.8640    2.8740 c3        1 MOL     -0.180620
     99 C33         0.9730    1.3890    3.7120 c3        1 MOL     -0.386930
    100 C34         0.6970    4.5040    4.2230 c3        1 MOL     -0.171568
    101 H42        -2.5820    4.0540    2.6950 hn        1 MOL      0.248757
    102 H43        -1.4410    2.4550    3.9250 h1        1 MOL     -0.032592
    103 H44         0.5790    2.1480    1.7470 hc        1 MOL     -0.231488
    104 H45         0.3560    4.5930    2.2140 hc        1 MOL      0.090833
    105 H46         1.8850    3.7970    2.5960 hc        1 MOL      0.090833
    106 H47         0.5560    0.4060    3.5020 hc        1 MOL      0.080609
    107 H48         2.0460    1.4790    3.5190 hc        1 MOL      0.080609
    108 H49         0.7370    1.5890    4.7560 hc        1 MOL      0.080609
    109 H50        -0.3540    4.5470    4.5200 hc        1 MOL      0.035036
    110 H51         1.3100    4.0990    5.0370 hc        1 MOL      0.035036
    111 H52         0.8130    5.5670    4.0520 hc        1 MOL      0.035036
    112 N10        -2.0930    0.1890    3.5750 n         1 MOL     -0.165140
    113 C35        -2.6770   -1.1690    3.5090 c3        1 MOL      0.008541
    114 C36        -4.0980   -1.2290    2.9610 c         1 MOL      0.507779
    115 O17        -4.4830   -2.3050    2.4530 o         1 MOL     -0.544049
    116 C37        -2.6300   -1.9920    4.7610 c3        1 MOL      0.420552
    117 C38        -3.5440   -1.3510    5.8220 c3        1 MOL     -0.445010
    118 O18        -1.3250   -1.9500    5.3420 oh        1 MOL     -0.623248
    119 H53        -2.0280    0.6840    4.4540 hn        1 MOL      0.245632
    120 H54        -2.1100   -1.7260    2.7660 h1        1 MOL      0.022189
    121 H55        -2.9500   -2.9840    4.4340 h1        1 MOL      0.000486
    122 H56        -0.8080   -2.6320    4.9000 ho        1 MOL      0.390338
    123 H57        -4.5340   -1.7730    5.6550 hc        1 MOL      0.114525
    124 H58        -3.2030   -1.7170    6.7870 hc        1 MOL      0.114525
    125 H59        -3.4130   -0.2760    5.8450 hc        1 MOL      0.114525
    126 N11        -4.7770   -0.1210    2.9350 n         1 MOL     -0.275320
    127 C39        -6.1770   -0.0390    2.3420 c3        1 MOL     -0.215439
    128 C40        -6.3170   -0.4590    0.8370 c         1 MOL      0.582238
    129 O19        -5.6920    0.1970    0.0310 o         1 MOL     -0.508492
    130 C41        -6.7960    1.3890    2.6100 c3        1 MOL      0.450462
    131 C42        -8.3120    1.4610    2.2840 c3        1 MOL     -0.351784
    132 O20        -6.6900    1.7610    3.9860 oh        1 MOL     -0.607868
    133 H60        -4.4160    0.6810    3.4220 hn        1 MOL      0.132245
    134 H61        -6.8260   -0.7650    2.8160 h1        1 MOL      0.089787
    135 H62        -6.2730    2.1140    1.9800 h1        1 MOL     -0.020327
    136 H63        -5.8120    2.0340    4.2490 ho        1 MOL      0.381465
    137 H64        -8.3670    1.2640    1.2150 hc        1 MOL      0.096035
    138 H65        -8.7890    0.7140    2.9130 hc        1 MOL      0.096035
    139 H66        -8.6910    2.4340    2.6020 hc        1 MOL      0.096035
    140 N12        -6.8590   -1.6200    0.5580 n         1 MOL     -0.404032
    141 C43        -6.9210   -2.3790   -0.6930 c3        1 MOL      0.285773
    142 C44        -5.6210   -2.3260   -1.5700 c         1 MOL      0.463347
    143 O21        -5.6430   -1.7520   -2.6600 o         1 MOL     -0.524038
    144 C45        -8.1750   -2.1700   -1.5310 c3        1 MOL     -0.485946
    145 C46        -9.4730   -2.4220   -0.8010 c3        1 MOL      0.318129
    146 C47       -10.6710   -1.9870   -1.5730 c3        1 MOL     -0.031365
    147 C48       -11.8660   -2.5200   -0.8000 c3        1 MOL      0.170812
    148 N13       -13.1630   -2.5620   -1.4910 n4        1 MOL     -0.194752
    149 H67        -7.2150   -2.1440    1.3420 hn        1 MOL      0.235284
    150 H68        -7.0790   -3.4130   -0.3830 h1        1 MOL      0.001421
    151 H69        -8.0640   -2.8200   -2.4030 hc        1 MOL      0.138109
    152 H70        -8.1760   -1.1350   -1.8730 hc        1 MOL      0.138109
    153 H71        -9.5120   -1.8810    0.1440 hc        1 MOL     -0.052221
    154 H72        -9.5810   -3.4910   -0.6210 hc        1 MOL     -0.052221
    155 H73       -10.6460   -2.3980   -2.5850 hc        1 MOL      0.009041
    156 H74       -10.7950   -0.9130   -1.5250 hc        1 MOL      0.009041
    157 H75       -11.9510   -2.0890    0.1930 hx        1 MOL      0.003595
    158 H76       -11.5670   -3.5370   -0.5490 hx        1 MOL      0.003595
    159 H77       -13.1060   -2.9000   -2.4390 hn        1 MOL      0.189640
    160 H78       -13.8460   -3.1290   -1.0050 hn        1 MOL      0.189640
    161 H79       -13.4870   -1.6050   -1.5020 hn        1 MOL      0.189640
    162 N14        -4.5010   -2.9040   -1.1030 n         1 MOL     -0.476198
    163 C49        -3.2290   -2.7680   -1.8690 c3        1 MOL      0.505764
    164 C50        -2.0120   -2.5430   -0.9530 c         1 MOL      0.116843
    165 O22        -1.3950   -1.5220   -1.1670 o         1 MOL     -0.445537
    166 C51        -2.9500   -4.0270   -2.8000 c3        1 MOL     -0.118860
    167 C52        -4.0830   -4.3100   -3.7530 c3        1 MOL     -0.206219
    168 C53        -3.7780   -5.6170   -4.5300 c         1 MOL      0.608043
    169 O23        -2.6920   -5.7360   -5.1680 o         1 MOL     -0.583708
    170 O24        -4.4130   -6.6600   -4.3470 o         1 MOL     -0.583708
    171 H80        -4.4980   -3.3700   -0.2050 hn        1 MOL      0.252272
    172 H81        -3.3260   -1.9010   -2.5170 h1        1 MOL      0.035884
    173 H82        -2.8990   -4.8550   -2.0960 hc        1 MOL      0.076541
    174 H83        -2.0450   -3.8250   -3.3690 hc        1 MOL      0.076541
    175 H84        -4.1750   -3.4410   -4.4140 hc        1 MOL      0.034431
    176 H85        -4.9880   -4.4630   -3.1710 hc        1 MOL      0.034431
    177 N15        -1.5940   -3.4250   -0.0310 n         1 MOL     -0.290200
    178 C54        -2.1580   -4.7620    0.3480 c3        1 MOL     -0.079546
    179 H86        -1.5910   -5.5490   -0.1490 h1        1 MOL      0.055393
    180 H87        -2.0890   -4.8930    1.4280 h1        1 MOL      0.055393
    181 H88        -3.2020   -4.8180    0.0410 h1        1 MOL      0.055393
    182 H89        -0.9920   -2.9860    0.6510 hn        1 MOL      0.378763
    183 Ca1        -0.5080    0.8760   -0.9810 Ca        1 MOL      1.764460
    184 O25         1.4170   -0.3050   -2.5100 oh        1 MOL     -0.885693
    185 H90         2.3460   -0.3950   -2.2980 ho        1 MOL      0.417371
    186 H91         1.3880   -0.2250   -3.4740 ho        1 MOL      0.417371
    187 O26        -3.2390    1.0760   -1.1480 oh        1 MOL     -0.885693
    188 H92        -3.6080    1.8930   -1.4670 ho        1 MOL      0.417371
    189 H93        -3.9000    0.7410   -0.5310 ho        1 MOL      0.417371
    190 O27        -1.3130    0.2490   -3.4880 oh        1 MOL     -0.885693
    191 H94        -0.8070    0.8040   -4.0750 ho        1 MOL      0.417371
    192 H95        -1.8300   -0.3050   -4.0700 ho        1 MOL      0.417371
@<TRIPOS>BOND
     1    1    2 1   
     2    1    4 1   
     3    1    5 1   
     4    1    6 1   
     5    2    3 2   
     6    2    7 1   
     7    7    8 1   
     8    7   15 1   
     9    8    9 1   
    10    8   11 1   
    11    8   16 1   
    12    9   10 2   
    13    9   19 1   
    14   11   12 1   
    15   11   17 1   
    16   11   18 1   
    17   12   13 1   
    18   12   14 1   
    19   19   20 1   
    20   19   28 1   
    21   20   21 1   
    22   20   23 1   
    23   20   29 1   
    24   21   22 2   
    25   21   41 1   
    26   23   24 1   
    27   23   30 1   
    28   23   31 1   
    29   24   25 1   
    30   24   32 1   
    31   24   33 1   
    32   25   26 1   
    33   25   34 1   
    34   25   35 1   
    35   26   27 1   
    36   26   36 1   
    37   26   37 1   
    38   27   38 1   
    39   27   39 1   
    40   27   40 1   
    41   41   42 1   
    42   41   49 1   
    43   42   43 1   
    44   42   45 1   
    45   42   50 1   
    46   43   44 2   
    47   43   53 1   
    48   45   46 1   
    49   45   51 1   
    50   45   52 1   
    51   46   47 1   
    52   46   48 1   
    53   53   54 1   
    54   53   57 1   
    55   54   55 1   
    56   54   58 1   
    57   54   59 1   
    58   55   56 2   
    59   55   60 1   
    60   60   61 1   
    61   60   68 1   
    62   61   62 1   
    63   61   64 1   
    64   61   69 1   
    65   62   63 2   
    66   62   72 1   
    67   64   65 1   
    68   64   70 1   
    69   64   71 1   
    70   65   66 1   
    71   65   67 1   
    72   72   73 1   
    73   72   76 1   
    74   73   74 1   
    75   73   77 1   
    76   73   78 1   
    77   74   75 2   
    78   74   79 1   
    79   79   80 1   
    80   79   86 1   
    81   80   81 1   
    82   80   83 1   
    83   80   87 1   
    84   81   82 2   
    85   81   93 1   
    86   83   84 1   
    87   83   85 1   
    88   83   88 1   
    89   84   90 1   
    90   84   91 1   
    91   84   92 1   
    92   85   89 1   
    93   93   94 1   
    94   93  101 1   
    95   94   95 1   
    96   94   97 1   
    97   94  102 1   
    98   95   96 2   
    99   95  112 1   
   100   97   98 1   
   101   97   99 1   
   102   97  103 1   
   103   98  100 1   
   104   98  104 1   
   105   98  105 1   
   106   99  106 1   
   107   99  107 1   
   108   99  108 1   
   109  100  109 1   
   110  100  110 1   
   111  100  111 1   
   112  112  113 1   
   113  112  119 1   
   114  113  114 1   
   115  113  116 1   
   116  113  120 1   
   117  114  115 2   
   118  114  126 1   
   119  116  117 1   
   120  116  118 1   
   121  116  121 1   
   122  117  123 1   
   123  117  124 1   
   124  117  125 1   
   125  118  122 1   
   126  126  127 1   
   127  126  133 1   
   128  127  128 1   
   129  127  130 1   
   130  127  134 1   
   131  128  129 2   
   132  128  140 1   
   133  130  131 1   
   134  130  132 1   
   135  130  135 1   
   136  131  137 1   
   137  131  138 1   
   138  131  139 1   
   139  132  136 1   
   140  140  141 1   
   141  140  149 1   
   142  141  142 1   
   143  141  144 1   
   144  141  150 1   
   145  142  143 2   
   146  142  162 1   
   147  144  145 1   
   148  144  151 1   
   149  144  152 1   
   150  145  146 1   
   151  145  153 1   
   152  145  154 1   
   153  146  147 1   
   154  146  155 1   
   155  146  156 1   
   156  147  148 1   
   157  147  157 1   
   158  147  158 1   
   159  148  159 1   
   160  148  160 1   
   161  148  161 1   
   162  162  163 1   
   163  162  171 1   
   164  163  164 1   
   165  163  166 1   
   166  163  172 1   
   167  164  165 2   
   168  164  177 1   
   169  166  167 1   
   170  166  173 1   
   171  166  174 1   
   172  167  168 1   
   173  167  175 1   
   174  167  176 1   
   175  168  169 1   
   176  168  170 1   
   177  177  178 1   
   178  177  182 1   
   179  178  179 1   
   180  178  180 1   
   181  178  181 1   
   182  184  185 1   
   183  184  186 1   
   184  187  188 1   
   185  187  189 1   
   186  190  191 1   
   187  190  192 1   
@<TRIPOS>SUBSTRUCTURE
     1 MOL         1 TEMP              0 ****  ****    0 ROOT
