@<TRIPOS>MOLECULE
MOL
  181   177     1     0     0
SMALL
resp


@<TRIPOS>ATOM
      1 C1          0.6680    6.8310   -2.0070 c3        1 MOL     -0.384528
      2 C2          2.0110    6.5950   -1.3050 c         1 MOL      0.656680
      3 O1          2.1280    6.9560   -0.1060 o         1 MOL     -0.586991
      4 H1          0.2170    7.7480   -1.6280 hc        1 MOL      0.093269
      5 H2          0.8290    6.9220   -3.0810 hc        1 MOL      0.093269
      6 H3          0.0020    5.9910   -1.8100 hc        1 MOL      0.093269
      7 N1          3.0460    6.1390   -1.9650 n         1 MOL     -0.525968
      8 C3          4.3020    5.7890   -1.2610 c3        1 MOL      0.135567
      9 C4          4.0250    4.5970   -0.3120 c         1 MOL      0.513407
     10 O2          3.4330    3.5470   -0.6840 o         1 MOL     -0.579615
     11 C5          5.3680    5.3040   -2.2350 c3        1 MOL     -0.259157
     12 C6          6.7880    5.1900   -1.5480 c         1 MOL      0.728725
     13 O3          7.5710    4.3550   -2.0120 o         1 MOL     -0.721868
     14 O4          7.1320    5.9650   -0.6430 o         1 MOL     -0.721868
     15 H4          2.9180    5.8270   -2.9150 hn        1 MOL      0.294822
     16 H5          4.6910    6.6800   -0.7670 h1        1 MOL      0.049369
     17 H6          5.4910    6.0090   -3.0560 hc        1 MOL      0.045316
     18 H7          5.2190    4.3350   -2.7130 hc        1 MOL      0.045316
     19 N2          4.4870    4.7660    0.9280 n         1 MOL     -0.361470
     20 C7          4.6990    3.7620    1.9660 c3        1 MOL      0.280323
     21 C8          3.4070    3.3840    2.5830 c         1 MOL      0.435578
     22 O5          2.3850    4.1400    2.4880 o         1 MOL     -0.575207
     23 C9          5.6760    4.3870    2.9950 c3        1 MOL     -0.378838
     24 H8          4.7320    5.7190    1.1390 hn        1 MOL      0.247494
     25 H9          5.1380    2.8730    1.5080 h1        1 MOL      0.051470
     26 H10         5.8400    3.7080    3.8320 hc        1 MOL      0.100508
     27 H11         6.6230    4.7240    2.5610 hc        1 MOL      0.100508
     28 H12         5.1570    5.1930    3.5110 hc        1 MOL      0.100508
     29 N3          3.3070    2.2310    3.1720 n         1 MOL     -0.460345
     30 C10         4.2830    1.2410    3.5040 c3        1 MOL      0.336201
     31 C11         4.5360    0.2740    2.2990 c         1 MOL      0.026599
     32 O6          3.7570    0.2000    1.3380 o         1 MOL     -0.275731
     33 C12         3.7580    0.3800    4.7030 c3        1 MOL     -0.233144
     34 C13         2.3080   -0.0960    4.5960 c         1 MOL      0.696006
     35 O7          1.8400   -0.8640    5.4950 o         1 MOL     -0.654578
     36 O8          1.5580    0.3890    3.7160 o         1 MOL     -0.654578
     37 H13         2.3650    1.9080    3.3330 hn        1 MOL      0.294092
     38 H14         5.2370    1.6840    3.7840 h1        1 MOL     -0.026123
     39 H15         3.8850    1.0050    5.5900 hc        1 MOL      0.020523
     40 H16         4.4260   -0.4660    4.8080 hc        1 MOL      0.020523
     41 N4          5.6600   -0.3460    2.4090 n         1 MOL     -0.127369
     42 C14         6.0840   -1.2770    1.3590 c3        1 MOL     -0.114743
     43 C15         7.4360   -0.8270    0.6110 c         1 MOL      0.672644
     44 O9          7.9790    0.2510    0.8480 o         1 MOL     -0.506288
     45 H17         6.3820   -0.1640    3.1010 hn        1 MOL      0.238308
     46 H18         5.3620   -1.4790    0.5620 h1        1 MOL      0.051258
     47 H19         6.3890   -2.1630    1.9310 h1        1 MOL      0.051258
     48 N5          8.0760   -1.7410   -0.1420 n         1 MOL     -0.680664
     49 C16         7.4490   -2.9390   -0.8200 c3        1 MOL      0.258488
     50 C17         6.2750   -2.5280   -1.7390 c         1 MOL      0.466444
     51 O10         6.3190   -1.4540   -2.4310 o         1 MOL     -0.418183
     52 C18         8.5080   -3.7120   -1.5720 c3        1 MOL     -0.201660
     53 C19         9.0680   -2.9670   -2.7970 c         1 MOL      0.623921
     54 N6          8.6810   -3.4860   -3.9670 n         1 MOL     -0.808024
     55 O11         9.8110   -1.9720   -2.7650 o         1 MOL     -0.491384
     56 H20         9.0000   -1.4990   -0.4400 hn        1 MOL      0.343596
     57 H21         7.1020   -3.6750   -0.0880 h1        1 MOL      0.011766
     58 H22         7.9920   -4.5960   -1.9710 hc        1 MOL      0.045200
     59 H23         9.3960   -4.0610   -1.0510 hc        1 MOL      0.045200
     60 H24         7.9950   -4.2310   -3.9520 hn        1 MOL      0.377855
     61 H25         9.0460   -3.1560   -4.8510 hn        1 MOL      0.377855
     62 N7          5.2280   -3.3870   -1.7470 n         1 MOL     -0.387619
     63 C20         4.1990   -3.4070   -2.7570 c3        1 MOL     -0.189379
     64 C21         2.8150   -3.9540   -2.3350 c         1 MOL      0.542650
     65 O12         1.9010   -4.2790   -3.1550 o         1 MOL     -0.564564
     66 H26         5.2130   -4.2170   -1.1720 hn        1 MOL      0.252402
     67 H27         4.4670   -4.0570   -3.5920 h1        1 MOL      0.116342
     68 H28         4.0860   -2.4180   -3.2010 h1        1 MOL      0.116342
     69 N8          2.6400   -4.2630   -1.0630 n         1 MOL     -0.324834
     70 C22         1.4330   -4.8740   -0.5720 c3        1 MOL     -0.124419
     71 C23         0.2430   -3.8720   -0.5800 c         1 MOL      0.625419
     72 O13         0.2940   -2.6630   -0.3130 o         1 MOL     -0.593872
     73 C24         1.5870   -5.4180    0.8280 c3        1 MOL      0.364306
     74 C25         0.3490   -5.9870    1.5990 c3        1 MOL     -0.147917
     75 O14         2.3860   -6.5460    0.6540 oh        1 MOL     -0.662148
     76 H29         3.2920   -3.8620   -0.4020 hn        1 MOL      0.193382
     77 H30         1.0350   -5.6950   -1.1820 h1        1 MOL      0.095390
     78 H31         2.1160   -4.7110    1.4750 h1        1 MOL      0.017333
     79 H32         2.7370   -6.5690   -0.2380 ho        1 MOL      0.371564
     80 H33         0.6020   -6.7250    2.3570 hc        1 MOL      0.056072
     81 H34        -0.1650   -5.1670    2.1020 hc        1 MOL      0.056072
     82 H35        -0.2340   -6.5410    0.8500 hc        1 MOL      0.056072
     83 N9         -0.8820   -4.4590   -0.9480 n         1 MOL     -0.508151
     84 C26        -2.1680   -3.7240   -0.8150 c3        1 MOL     -0.076414
     85 C27        -2.8120   -3.7780    0.6450 c         1 MOL      0.385842
     86 O15        -2.7730   -4.7880    1.3400 o         1 MOL     -0.502959
     87 C28        -3.2440   -4.2410   -1.7760 c3        1 MOL      0.055350
     88 C29        -4.4840   -3.3080   -1.7270 c3        1 MOL      0.183077
     89 C30        -2.6380   -4.4870   -3.2240 c3        1 MOL     -0.299125
     90 C31        -5.3620   -3.2410   -3.0190 c3        1 MOL     -0.293719
     91 H36        -0.9700   -5.4560   -1.0770 hn        1 MOL      0.347829
     92 H37        -2.0660   -2.7000   -1.1680 h1        1 MOL      0.220004
     93 H38        -3.5730   -5.2330   -1.4710 hc        1 MOL      0.007165
     94 H39        -4.2480   -2.3020   -1.3740 hc        1 MOL     -0.019469
     95 H40        -5.1460   -3.6900   -0.9420 hc        1 MOL     -0.019469
     96 H41        -3.3100   -4.8110   -4.0130 hc        1 MOL      0.079015
     97 H42        -2.2140   -3.5720   -3.6410 hc        1 MOL      0.079015
     98 H43        -1.9070   -5.2970   -3.2430 hc        1 MOL      0.079015
     99 H44        -6.2390   -2.6550   -2.7660 hc        1 MOL      0.055033
    100 H45        -4.7740   -2.7810   -3.8100 hc        1 MOL      0.055033
    101 H46        -5.5600   -4.2750   -3.3380 hc        1 MOL      0.055033
    102 N10        -3.3840   -2.6450    1.0920 n         1 MOL     -0.141033
    103 C32        -4.0260   -2.3430    2.3950 c3        1 MOL     -0.190829
    104 C33        -5.3120   -1.4520    2.3400 c         1 MOL      0.598232
    105 O16        -5.8910   -1.2730    3.3960 o         1 MOL     -0.540404
    106 C34        -3.0030   -1.4470    3.1520 c3        1 MOL      0.006774
    107 C35        -1.7290   -2.2060    3.3410 c         1 MOL      0.656028
    108 O17        -0.7250   -1.8510    2.7450 o         1 MOL     -0.686002
    109 O18        -1.7670   -3.1640    4.1920 o         1 MOL     -0.686002
    110 H47        -3.4330   -1.8740    0.4330 hn        1 MOL      0.088454
    111 H48        -4.1900   -3.2770    2.9240 h1        1 MOL      0.148725
    112 H49        -3.4470   -1.1790    4.1150 hc        1 MOL      0.023906
    113 H50        -2.8950   -0.4700    2.6810 hc        1 MOL      0.023906
    114 N11        -5.7870   -0.9460    1.1720 n         1 MOL     -0.744616
    115 C36        -6.8870    0.1550    0.9990 c3        1 MOL      0.671367
    116 C37        -6.3400    1.3460    0.1710 c         1 MOL      0.127588
    117 O19        -6.7820    1.6420   -0.8450 o         1 MOL     -0.392131
    118 C38        -8.0070   -0.6880    0.4080 c3        1 MOL     -0.646667
    119 C39        -9.4140   -0.0400    0.4300 ca        1 MOL      0.284188
    120 C40        -9.8380    0.6730    1.5620 ca        1 MOL     -0.245276
    121 C41       -10.3590   -0.1880   -0.6140 ca        1 MOL     -0.245276
    122 C42       -11.0660    1.2730    1.7200 ca        1 MOL     -0.082235
    123 C43       -11.6570    0.3550   -0.4720 ca        1 MOL     -0.082235
    124 C44       -12.0570    1.0370    0.7450 ca        1 MOL     -0.162795
    125 H51        -5.2680   -1.0820    0.3200 hn        1 MOL      0.374841
    126 H52        -7.1250    0.6240    1.9550 h1        1 MOL     -0.053066
    127 H53        -8.1090   -1.5290    1.0930 hc        1 MOL      0.202711
    128 H54        -7.6980   -0.9690   -0.6000 hc        1 MOL      0.202711
    129 H55        -9.2130    0.8160    2.4380 ha        1 MOL      0.141959
    130 H56        -9.9600   -0.6970   -1.4800 ha        1 MOL      0.141959
    131 H57       -11.2810    1.8250    2.6240 ha        1 MOL      0.103442
    132 H58       -12.3300    0.3600   -1.3080 ha        1 MOL      0.103442
    133 H59       -13.0530    1.4470    0.8490 ha        1 MOL      0.106763
    134 N12        -5.3140    2.1650    0.6090 n         1 MOL      0.019570
    135 C45        -4.8070    3.3680   -0.0600 c3        1 MOL     -0.044412
    136 C46        -4.5610    3.2650   -1.5490 c         1 MOL      0.374556
    137 O20        -4.9560    4.0330   -2.3360 o         1 MOL     -0.497170
    138 C47        -3.5750    3.7120    0.8290 c3        1 MOL      0.068330
    139 C48        -4.0880    3.3860    2.2520 c3        1 MOL     -0.297293
    140 C49        -4.7090    2.0190    1.9760 c3        1 MOL     -0.137594
    141 H60        -5.6070    4.0980    0.0600 h1        1 MOL      0.059152
    142 H61        -2.6520    3.2160    0.5580 hc        1 MOL      0.023119
    143 H62        -3.3530    4.7800    0.7460 hc        1 MOL      0.023119
    144 H63        -3.3010    3.2520    2.9840 hc        1 MOL      0.112632
    145 H64        -4.8590    4.1140    2.5130 hc        1 MOL      0.112632
    146 H65        -3.9370    1.2750    1.7610 h1        1 MOL      0.121227
    147 H66        -5.3270    1.6240    2.7820 h1        1 MOL      0.121227
    148 N13        -3.8870    2.1620   -1.9290 n         1 MOL     -0.161581
    149 C50        -3.5520    1.8020   -3.3600 c3        1 MOL     -0.297142
    150 C51        -4.8460    1.7130   -4.2810 c         1 MOL      0.498480
    151 O21        -4.7650    1.8710   -5.4840 o         1 MOL     -0.562811
    152 C52        -2.7720    0.4840   -3.4450 c3        1 MOL      0.102303
    153 C53        -1.5730    0.3230   -2.5250 c3        1 MOL     -0.416155
    154 C54        -1.9400    0.1370   -1.0640 c         1 MOL      0.732379
    155 O22        -1.0420    0.2080   -0.2460 o         1 MOL     -0.734832
    156 O23        -3.0790   -0.1740   -0.7180 o         1 MOL     -0.734832
    157 H67        -3.6170    1.4950   -1.2240 hn        1 MOL      0.255783
    158 H68        -2.9330    2.5250   -3.8870 h1        1 MOL      0.148349
    159 H69        -2.4070    0.4110   -4.4710 hc        1 MOL      0.019454
    160 H70        -3.4400   -0.3800   -3.4180 hc        1 MOL      0.019454
    161 H71        -1.0140    1.2370   -2.7050 hc        1 MOL      0.133184
    162 H72        -1.1090   -0.6010   -2.8840 hc        1 MOL      0.133184
    163 N14        -5.9980    1.5150   -3.6450 n         1 MOL     -0.083602
    164 C55        -7.2820    1.4610   -4.2920 c3        1 MOL     -0.133539
    165 H73        -7.8200    2.3910   -4.1080 h1        1 MOL      0.055387
    166 H74        -7.1430    1.3280   -5.3650 h1        1 MOL      0.055387
    167 H75        -7.8550    0.6250   -3.8920 h1        1 MOL      0.055387
    168 H76        -6.0510    1.3810   -2.6430 hn        1 MOL      0.131625
    169 Ca1         0.9220   -0.5090    1.2170 Ca        1 MOL      1.702732
    170 O24         2.3870   -0.7690   -1.2860 oh        1 MOL     -0.853929
    171 H77         1.8470   -1.2570   -1.9050 ho        1 MOL      0.413011
    172 H78         3.2120   -0.6380   -1.7460 ho        1 MOL      0.413011
    173 O25         2.5210   -2.3920    2.4670 oh        1 MOL     -0.853929
    174 H79         3.3750   -2.5230    2.8600 ho        1 MOL      0.413011
    175 H80         1.9080   -2.8220    3.0710 ho        1 MOL      0.413011
    176 O26         1.4460    1.9740    0.4780 oh        1 MOL     -0.853929
    177 H81         0.9010    2.7350    0.6700 ho        1 MOL      0.413011
    178 H82         2.2470    2.3410    0.0950 ho        1 MOL      0.413011
    179 O27        -1.0610    1.4680    2.0630 oh        1 MOL     -0.853929
    180 H83        -1.3830    1.2350    1.2010 ho        1 MOL      0.413011
    181 H84        -0.8520    2.4000    2.0070 ho        1 MOL      0.413011
@<TRIPOS>BOND
     1    1    2 1   
     2    1    4 1   
     3    1    5 1   
     4    1    6 1   
     5    2    3 2   
     6    2    7 1   
     7    7    8 1   
     8    7   15 1   
     9    8    9 1   
    10    8   11 1   
    11    8   16 1   
    12    9   10 2   
    13    9   19 1   
    14   11   12 1   
    15   11   17 1   
    16   11   18 1   
    17   12   13 1   
    18   12   14 1   
    19   19   20 1   
    20   19   24 1   
    21   20   21 1   
    22   20   23 1   
    23   20   25 1   
    24   21   22 2   
    25   21   29 1   
    26   23   26 1   
    27   23   27 1   
    28   23   28 1   
    29   29   30 1   
    30   29   37 1   
    31   30   31 1   
    32   30   33 1   
    33   30   38 1   
    34   31   32 2   
    35   31   41 1   
    36   33   34 1   
    37   33   39 1   
    38   33   40 1   
    39   34   35 1   
    40   34   36 1   
    41   41   42 1   
    42   41   45 1   
    43   42   43 1   
    44   42   46 1   
    45   42   47 1   
    46   43   44 2   
    47   43   48 1   
    48   48   49 1   
    49   48   56 1   
    50   49   50 1   
    51   49   52 1   
    52   49   57 1   
    53   50   51 2   
    54   50   62 1   
    55   52   53 1   
    56   52   58 1   
    57   52   59 1   
    58   53   54 1   
    59   53   55 2   
    60   54   60 1   
    61   54   61 1   
    62   62   63 1   
    63   62   66 1   
    64   63   64 1   
    65   63   67 1   
    66   63   68 1   
    67   64   65 2   
    68   64   69 1   
    69   69   70 1   
    70   69   76 1   
    71   70   71 1   
    72   70   73 1   
    73   70   77 1   
    74   71   72 2   
    75   71   83 1   
    76   73   74 1   
    77   73   75 1   
    78   73   78 1   
    79   74   80 1   
    80   74   81 1   
    81   74   82 1   
    82   75   79 1   
    83   83   84 1   
    84   83   91 1   
    85   84   85 1   
    86   84   87 1   
    87   84   92 1   
    88   85   86 2   
    89   85  102 1   
    90   87   88 1   
    91   87   89 1   
    92   87   93 1   
    93   88   90 1   
    94   88   94 1   
    95   88   95 1   
    96   89   96 1   
    97   89   97 1   
    98   89   98 1   
    99   90   99 1   
   100   90  100 1   
   101   90  101 1   
   102  102  103 1   
   103  102  110 1   
   104  103  104 1   
   105  103  106 1   
   106  103  111 1   
   107  104  105 2   
   108  104  114 1   
   109  106  107 1   
   110  106  112 1   
   111  106  113 1   
   112  107  108 1   
   113  107  109 1   
   114  114  115 1   
   115  114  125 1   
   116  115  116 1   
   117  115  118 1   
   118  115  126 1   
   119  116  117 2   
   120  116  134 1   
   121  118  119 1   
   122  118  127 1   
   123  118  128 1   
   124  119  120 ar  
   125  119  121 ar  
   126  120  122 ar  
   127  120  129 1   
   128  121  123 ar  
   129  121  130 1   
   130  122  124 ar  
   131  122  131 1   
   132  123  124 ar  
   133  123  132 1   
   134  124  133 1   
   135  134  135 1   
   136  134  140 1   
   137  135  136 1   
   138  135  138 1   
   139  135  141 1   
   140  136  137 2   
   141  136  148 1   
   142  138  139 1   
   143  138  142 1   
   144  138  143 1   
   145  139  140 1   
   146  139  144 1   
   147  139  145 1   
   148  140  146 1   
   149  140  147 1   
   150  148  149 1   
   151  148  157 1   
   152  149  150 1   
   153  149  152 1   
   154  149  158 1   
   155  150  151 2   
   156  150  163 1   
   157  152  153 1   
   158  152  159 1   
   159  152  160 1   
   160  153  154 1   
   161  153  161 1   
   162  153  162 1   
   163  154  155 1   
   164  154  156 1   
   165  163  164 1   
   166  163  168 1   
   167  164  165 1   
   168  164  166 1   
   169  164  167 1   
   170  170  171 1   
   171  170  172 1   
   172  173  174 1   
   173  173  175 1   
   174  176  177 1   
   175  176  178 1   
   176  179  180 1   
   177  179  181 1   
@<TRIPOS>SUBSTRUCTURE
     1 MOL         1 TEMP              0 ****  ****    0 ROOT
