@<TRIPOS>MOLECULE
MOL
  181   177     1     0     0
SMALL
resp


@<TRIPOS>ATOM
      1 C1          6.8360    0.4440    6.8870 c3        1 MOL     -0.256300
      2 C2          6.0230    0.9580    5.7290 c         1 MOL      0.746130
      3 O1          4.8820    1.2940    5.8830 o         1 MOL     -0.609271
      4 H1          6.1730    0.2010    7.7170 hc        1 MOL      0.062355
      5 H2          7.3780   -0.4510    6.5830 hc        1 MOL      0.062355
      6 H3          7.5460    1.2090    7.2030 hc        1 MOL      0.062355
      7 N1          6.4150    1.1350    4.4930 n         1 MOL     -0.605213
      8 C3          7.6950    0.9020    4.0060 c3        1 MOL      0.275766
      9 C4          7.8840   -0.5430    3.4670 c         1 MOL      0.409459
     10 O2          6.9190   -1.2810    3.2390 o         1 MOL     -0.420901
     11 C5          8.2100    1.9550    2.9980 c3        1 MOL     -0.445913
     12 C6          7.4200    1.7980    1.6680 c         1 MOL      0.901486
     13 O3          7.7070    0.9510    0.7890 o         1 MOL     -0.781268
     14 O4          6.3830    2.4560    1.5770 o         1 MOL     -0.781268
     15 H4          5.7810    1.4480    3.7750 hn        1 MOL      0.364417
     16 H5          8.4210    0.8670    4.8230 h1        1 MOL     -0.009873
     17 H6          9.2800    1.8610    2.7810 hc        1 MOL      0.090826
     18 H7          8.0770    2.9380    3.4390 hc        1 MOL      0.090826
     19 N2          9.1760   -0.8070    3.2640 n         1 MOL     -0.533147
     20 C7          9.6900   -2.0880    2.7390 c3        1 MOL      0.218604
     21 C8          9.1430   -2.6760    1.3960 c         1 MOL      0.332814
     22 O5          9.5600   -3.8540    1.0960 o         1 MOL     -0.534983
     23 C9          9.4220   -3.1130    3.8550 c3        1 MOL     -0.277547
     24 H8          9.8630   -0.1900    3.6760 hn        1 MOL      0.306470
     25 H9         10.7720   -2.1580    2.6860 h1        1 MOL      0.034932
     26 H10         9.7910   -2.7700    4.8220 hc        1 MOL      0.087803
     27 H11         8.3890   -3.4340    3.8720 hc        1 MOL      0.087803
     28 H12         9.8920   -4.0480    3.5670 hc        1 MOL      0.087803
     29 N3          8.2680   -2.0580    0.5720 n         1 MOL     -0.324159
     30 C10         7.5230   -2.6010   -0.5690 c3        1 MOL      0.312606
     31 C11         7.4470   -1.7970   -1.8300 c         1 MOL      0.268701
     32 O6          7.2020   -0.6000   -1.7550 o         1 MOL     -0.412271
     33 C12         6.1090   -3.0730   -0.0760 c3        1 MOL      0.064570
     34 C13         5.1040   -1.9920    0.4260 c         1 MOL      0.530080
     35 O7          4.1130   -2.3400    1.1520 o         1 MOL     -0.648284
     36 O8          5.2110   -0.7990    0.1100 o         1 MOL     -0.648284
     37 H13         8.0440   -1.1050    0.8350 hn        1 MOL      0.201507
     38 H14         7.9970   -3.5490   -0.8230 h1        1 MOL     -0.037232
     39 H15         6.1500   -3.9050    0.6270 hc        1 MOL     -0.025638
     40 H16         5.6480   -3.5270   -0.9560 hc        1 MOL     -0.025638
     41 N4          7.5720   -2.4370   -3.0220 n         1 MOL     -0.384499
     42 C14         7.0800   -1.8620   -4.2770 c3        1 MOL     -0.285238
     43 C15         5.5890   -1.6590   -4.3940 c         1 MOL      0.469032
     44 O9          5.1110   -1.1480   -5.4030 o         1 MOL     -0.525298
     45 H17         7.7810   -3.4220   -3.0790 hn        1 MOL      0.300767
     46 H18         7.4450   -2.4950   -5.0840 h1        1 MOL      0.157315
     47 H19         7.5660   -0.8770   -4.3600 h1        1 MOL      0.157315
     48 N5          4.7300   -2.1500   -3.4600 n         1 MOL     -0.247353
     49 C16         3.2760   -1.9130   -3.4800 c3        1 MOL      0.007609
     50 C17         2.9240   -0.5120   -2.8450 c         1 MOL      0.704929
     51 O10         3.8340    0.1520   -2.3320 o         1 MOL     -0.599968
     52 C18         2.6130   -3.0710   -2.7560 c3        1 MOL     -0.160242
     53 C19         2.9040   -4.4310   -3.3160 c         1 MOL      0.636533
     54 N6          2.9010   -5.4500   -2.5170 n         1 MOL     -0.753916
     55 O11         3.3020   -4.6040   -4.4580 o         1 MOL     -0.570957
     56 H20         4.9170   -2.6850   -2.6190 hn        1 MOL      0.249691
     57 H21         2.9420   -1.8980   -4.5140 h1        1 MOL      0.069929
     58 H22         1.5440   -2.9330   -2.9040 hc        1 MOL      0.054553
     59 H23         2.7960   -3.1370   -1.6850 hc        1 MOL      0.054553
     60 H24         2.5190   -5.2970   -1.5950 hn        1 MOL      0.362009
     61 H25         3.2680   -6.3360   -2.8310 hn        1 MOL      0.362009
     62 N7          1.6690   -0.1360   -2.8740 n         1 MOL     -0.743030
     63 C20         1.1390    1.1610   -2.1900 c3        1 MOL      0.308335
     64 C21         1.4950    2.3520   -3.1640 c         1 MOL      0.497994
     65 O12         1.8690    2.1980   -4.3130 o         1 MOL     -0.526072
     66 H26         1.0010   -0.6710   -3.3950 hn        1 MOL      0.395010
     67 H27         1.8110    1.3640   -1.3510 h1        1 MOL      0.022581
     68 H28         0.0720    1.1090   -1.9860 h1        1 MOL      0.022581
     69 N8          1.3380    3.5670   -2.7040 n         1 MOL     -0.489561
     70 C22         0.8360    4.0380   -1.3620 c3        1 MOL     -0.047617
     71 C23        -0.5890    3.6310   -1.0220 c         1 MOL      0.555378
     72 O13        -1.4210    3.6600   -1.9310 o         1 MOL     -0.507418
     73 C24         0.9110    5.5980   -1.2450 c3        1 MOL      0.394707
     74 C25         0.7770    6.2080    0.1950 c3        1 MOL     -0.327752
     75 O14         2.2170    5.9250   -1.6500 oh        1 MOL     -0.641632
     76 H29         1.6370    4.2330   -3.3910 hn        1 MOL      0.284173
     77 H30         1.5510    3.6570   -0.6390 h1        1 MOL      0.096576
     78 H31         0.1530    6.0140   -1.9080 h1        1 MOL      0.025576
     79 H32         2.1490    6.7330   -2.1810 ho        1 MOL      0.391185
     80 H33        -0.0910    5.8030    0.7170 hc        1 MOL      0.092259
     81 H34         1.6360    6.0070    0.8320 hc        1 MOL      0.092259
     82 H35         0.7760    7.2940    0.1680 hc        1 MOL      0.092259
     83 N9         -0.9320    3.2030    0.2020 n         1 MOL     -0.625498
     84 C26        -2.2490    2.7590    0.6500 c3        1 MOL      0.010841
     85 C27        -3.0650    3.9410    1.0230 c         1 MOL      0.745002
     86 O15        -2.5960    4.8200    1.7820 o         1 MOL     -0.612393
     87 C28        -2.0330    1.7280    1.8120 c3        1 MOL      0.066152
     88 C29        -1.4530    0.4380    1.1780 c3        1 MOL      0.089713
     89 C30        -3.2800    1.4610    2.6010 c3        1 MOL     -0.356334
     90 C31        -1.0770   -0.6140    2.2310 c3        1 MOL     -0.517707
     91 H36        -0.2560    3.3460    0.9360 hn        1 MOL      0.277927
     92 H37        -2.7910    2.3870   -0.2250 h1        1 MOL      0.145254
     93 H38        -1.3150    2.1770    2.4970 hc        1 MOL      0.039791
     94 H39        -0.5190    0.6390    0.6420 hc        1 MOL      0.019125
     95 H40        -2.2270    0.0670    0.5130 hc        1 MOL      0.019125
     96 H41        -3.0680    0.9430    3.5370 hc        1 MOL      0.105410
     97 H42        -3.7630    2.4080    2.8230 hc        1 MOL      0.105410
     98 H43        -3.9470    0.7600    2.0890 hc        1 MOL      0.105410
     99 H44        -1.9360   -0.9200    2.8350 hc        1 MOL      0.129203
    100 H45        -0.5180   -1.4670    1.8480 hc        1 MOL      0.129203
    101 H46        -0.4170   -0.1200    2.9500 hc        1 MOL      0.129203
    102 N10        -4.4260    4.0210    0.7110 n         1 MOL     -0.661946
    103 C32        -5.2940    3.2700   -0.2660 c3        1 MOL      0.135143
    104 C33        -6.4140    2.4540    0.4290 c         1 MOL      0.692790
    105 O16        -6.3860    2.3540    1.6690 o         1 MOL     -0.581796
    106 C34        -5.7740    4.2570   -1.4030 c3        1 MOL     -0.117410
    107 C35        -6.5600    5.4540   -0.9540 c         1 MOL      0.729190
    108 O17        -7.7420    5.6360   -1.4170 o         1 MOL     -0.742481
    109 O18        -6.0280    6.2800   -0.2270 o         1 MOL     -0.742481
    110 H47        -4.9370    4.5730    1.3750 hn        1 MOL      0.372628
    111 H48        -4.6700    2.5650   -0.8070 h1        1 MOL      0.002584
    112 H49        -6.3560    3.7850   -2.1920 hc        1 MOL      0.009141
    113 H50        -4.8860    4.5310   -1.9670 hc        1 MOL      0.009141
    114 N11        -7.3580    1.9180   -0.3110 n         1 MOL     -0.793043
    115 C36        -8.2980    0.8310    0.0930 c3        1 MOL      0.476705
    116 C37        -8.7950    0.0450   -1.0520 c         1 MOL      0.274223
    117 O19        -9.1800    0.6310   -2.0510 o         1 MOL     -0.515076
    118 C38        -9.4500    1.5530    0.8040 c3        1 MOL     -0.246851
    119 C39       -10.4570    0.5830    1.4160 ca        1 MOL      0.018604
    120 C40       -11.5380    0.1370    0.6070 ca        1 MOL     -0.127985
    121 C41       -10.1130   -0.1450    2.5370 ca        1 MOL     -0.127985
    122 C42       -12.2960   -1.0200    0.9940 ca        1 MOL     -0.134210
    123 C43       -10.9510   -1.1980    3.0090 ca        1 MOL     -0.134210
    124 C44       -12.0180   -1.5950    2.2170 ca        1 MOL     -0.110121
    125 H51        -7.1560    1.9370   -1.3000 hn        1 MOL      0.379113
    126 H52        -7.7750    0.2300    0.8230 h1        1 MOL     -0.032455
    127 H53        -9.9340    2.2030    0.0750 hc        1 MOL      0.116275
    128 H54        -9.0110    2.1230    1.6240 hc        1 MOL      0.116275
    129 H55       -11.6800    0.5410   -0.3830 ha        1 MOL      0.113818
    130 H56        -9.3880    0.2740    3.2270 ha        1 MOL      0.113818
    131 H57       -13.0580   -1.4490    0.3590 ha        1 MOL      0.104805
    132 H58       -10.8520   -1.7430    3.9350 ha        1 MOL      0.104805
    133 H59       -12.5330   -2.5000    2.4990 ha        1 MOL      0.086564
    134 N12        -8.8500   -1.2980   -1.0360 n         1 MOL      0.031573
    135 C45        -8.1970   -2.2790   -0.0700 c3        1 MOL      0.201283
    136 C46        -6.6780   -2.1610    0.1370 c         1 MOL      0.273410
    137 O20        -5.9810   -1.1290   -0.1550 o         1 MOL     -0.495194
    138 C47        -8.6180   -3.6550   -0.6570 c3        1 MOL     -0.218355
    139 C48       -10.0210   -3.4180   -1.3050 c3        1 MOL     -0.090898
    140 C49        -9.7180   -2.0450   -1.9420 c3        1 MOL      0.012816
    141 H60        -8.6610   -2.1400    0.9090 h1        1 MOL     -0.046566
    142 H61        -7.9870   -3.8990   -1.5190 hc        1 MOL      0.106270
    143 H62        -8.6620   -4.4120    0.1220 hc        1 MOL      0.106270
    144 H63       -10.2110   -4.1890   -2.0620 hc        1 MOL      0.033862
    145 H64       -10.8110   -3.4370   -0.5570 hc        1 MOL      0.033862
    146 H65        -9.2830   -2.1550   -2.9300 h1        1 MOL      0.036123
    147 H66       -10.6520   -1.4770   -1.9800 h1        1 MOL      0.036123
    148 N13        -6.1380   -3.2470    0.7230 n         1 MOL     -0.305139
    149 C50        -4.7360   -3.3350    1.2400 c3        1 MOL      0.272803
    150 C51        -4.4400   -4.2930    2.4400 c         1 MOL      0.272712
    151 O21        -3.6990   -5.2400    2.2800 o         1 MOL     -0.483498
    152 C52        -3.7450   -3.6960    0.0530 c3        1 MOL      0.066346
    153 C53        -3.9520   -4.9750   -0.7490 c3        1 MOL      0.006782
    154 C54        -5.2820   -5.0290   -1.5830 c         1 MOL      0.611830
    155 O22        -5.3570   -4.1250   -2.4960 o         1 MOL     -0.709846
    156 O23        -6.2260   -5.8090   -1.2470 o         1 MOL     -0.709846
    157 H67        -6.7070   -4.0590    0.9330 hn        1 MOL      0.247256
    158 H68        -4.3930   -2.3590    1.5920 h1        1 MOL      0.013786
    159 H69        -2.6890   -3.7490    0.3320 hc        1 MOL      0.001299
    160 H70        -3.7530   -2.8460   -0.6140 hc        1 MOL      0.001299
    161 H71        -3.9010   -5.8340   -0.0820 hc        1 MOL     -0.055537
    162 H72        -3.1340   -4.9300   -1.4640 hc        1 MOL     -0.055537
    163 N14        -5.0260   -4.1250    3.6580 n         1 MOL     -0.270189
    164 C55        -5.8330   -3.0290    4.1460 c3        1 MOL     -0.199505
    165 H73        -5.5110   -2.7620    5.1530 h1        1 MOL      0.088315
    166 H74        -5.7170   -2.1690    3.4870 h1        1 MOL      0.088315
    167 H75        -6.8810   -3.3310    4.1690 h1        1 MOL      0.088315
    168 H76        -4.7300   -4.8260    4.3240 hn        1 MOL      0.248924
    169 Ca1         5.6830    1.4980   -0.9630 Ca        1 MOL      1.786274
    170 O24         7.7510    3.4050   -1.3330 oh        1 MOL     -0.856813
    171 H77         7.7060    4.1530   -1.9240 ho        1 MOL      0.417508
    172 H78         8.6790    3.3480   -1.0790 ho        1 MOL      0.417508
    173 O25         6.5590    1.9330   -3.3460 oh        1 MOL     -0.856813
    174 H79         6.1600    1.8510   -4.2060 ho        1 MOL      0.417508
    175 H80         7.4480    2.2440   -3.5130 ho        1 MOL      0.417508
    176 O26         3.7550    1.9560    0.7430 oh        1 MOL     -0.856813
    177 H81         4.2770    1.9920    1.5410 ho        1 MOL      0.417508
    178 H82         2.8530    2.1280    1.0350 ho        1 MOL      0.417508
    179 O27         4.5390    3.7350   -1.8590 oh        1 MOL     -0.856813
    180 H83         4.8680    3.9600   -2.7340 ho        1 MOL      0.417508
    181 H84         3.8180    4.3500   -1.7170 ho        1 MOL      0.417508
@<TRIPOS>BOND
     1    1    2 1   
     2    1    4 1   
     3    1    5 1   
     4    1    6 1   
     5    2    3 2   
     6    2    7 1   
     7    7    8 1   
     8    7   15 1   
     9    8    9 1   
    10    8   11 1   
    11    8   16 1   
    12    9   10 2   
    13    9   19 1   
    14   11   12 1   
    15   11   17 1   
    16   11   18 1   
    17   12   13 1   
    18   12   14 1   
    19   19   20 1   
    20   19   24 1   
    21   20   21 1   
    22   20   23 1   
    23   20   25 1   
    24   21   22 2   
    25   21   29 1   
    26   23   26 1   
    27   23   27 1   
    28   23   28 1   
    29   29   30 1   
    30   29   37 1   
    31   30   31 1   
    32   30   33 1   
    33   30   38 1   
    34   31   32 2   
    35   31   41 1   
    36   33   34 1   
    37   33   39 1   
    38   33   40 1   
    39   34   35 1   
    40   34   36 1   
    41   41   42 1   
    42   41   45 1   
    43   42   43 1   
    44   42   46 1   
    45   42   47 1   
    46   43   44 2   
    47   43   48 1   
    48   48   49 1   
    49   48   56 1   
    50   49   50 1   
    51   49   52 1   
    52   49   57 1   
    53   50   51 2   
    54   50   62 1   
    55   52   53 1   
    56   52   58 1   
    57   52   59 1   
    58   53   54 1   
    59   53   55 2   
    60   54   60 1   
    61   54   61 1   
    62   62   63 1   
    63   62   66 1   
    64   63   64 1   
    65   63   67 1   
    66   63   68 1   
    67   64   65 2   
    68   64   69 1   
    69   69   70 1   
    70   69   76 1   
    71   70   71 1   
    72   70   73 1   
    73   70   77 1   
    74   71   72 2   
    75   71   83 1   
    76   73   74 1   
    77   73   75 1   
    78   73   78 1   
    79   74   80 1   
    80   74   81 1   
    81   74   82 1   
    82   75   79 1   
    83   83   84 1   
    84   83   91 1   
    85   84   85 1   
    86   84   87 1   
    87   84   92 1   
    88   85   86 2   
    89   85  102 1   
    90   87   88 1   
    91   87   89 1   
    92   87   93 1   
    93   88   90 1   
    94   88   94 1   
    95   88   95 1   
    96   89   96 1   
    97   89   97 1   
    98   89   98 1   
    99   90   99 1   
   100   90  100 1   
   101   90  101 1   
   102  102  103 1   
   103  102  110 1   
   104  103  104 1   
   105  103  106 1   
   106  103  111 1   
   107  104  105 2   
   108  104  114 1   
   109  106  107 1   
   110  106  112 1   
   111  106  113 1   
   112  107  108 1   
   113  107  109 1   
   114  114  115 1   
   115  114  125 1   
   116  115  116 1   
   117  115  118 1   
   118  115  126 1   
   119  116  117 2   
   120  116  134 1   
   121  118  119 1   
   122  118  127 1   
   123  118  128 1   
   124  119  120 ar  
   125  119  121 ar  
   126  120  122 ar  
   127  120  129 1   
   128  121  123 ar  
   129  121  130 1   
   130  122  124 ar  
   131  122  131 1   
   132  123  124 ar  
   133  123  132 1   
   134  124  133 1   
   135  134  135 1   
   136  134  140 1   
   137  135  136 1   
   138  135  138 1   
   139  135  141 1   
   140  136  137 2   
   141  136  148 1   
   142  138  139 1   
   143  138  142 1   
   144  138  143 1   
   145  139  140 1   
   146  139  144 1   
   147  139  145 1   
   148  140  146 1   
   149  140  147 1   
   150  148  149 1   
   151  148  157 1   
   152  149  150 1   
   153  149  152 1   
   154  149  158 1   
   155  150  151 2   
   156  150  163 1   
   157  152  153 1   
   158  152  159 1   
   159  152  160 1   
   160  153  154 1   
   161  153  161 1   
   162  153  162 1   
   163  154  155 1   
   164  154  156 1   
   165  163  164 1   
   166  163  168 1   
   167  164  165 1   
   168  164  166 1   
   169  164  167 1   
   170  170  171 1   
   171  170  172 1   
   172  173  174 1   
   173  173  175 1   
   174  176  177 1   
   175  176  178 1   
   176  179  180 1   
   177  179  181 1   
@<TRIPOS>SUBSTRUCTURE
     1 MOL         1 TEMP              0 ****  ****    0 ROOT
