@<TRIPOS>MOLECULE
MOL
  192   187     1     0     0
SMALL
resp


@<TRIPOS>ATOM
      1 C1         -9.2170    0.1750   -2.5940 c3        1 MOL     -0.385106
      2 C2         -8.1150    0.1710   -1.4460 c         1 MOL      0.662398
      3 O1         -7.0980    0.8690   -1.4960 o         1 MOL     -0.574161
      4 H1         -9.6970   -0.8030   -2.6380 hc        1 MOL      0.107012
      5 H2         -9.9650    0.9370   -2.3790 hc        1 MOL      0.107012
      6 H3         -8.7430    0.3900   -3.5520 hc        1 MOL      0.107012
      7 N1         -8.2470   -0.7300   -0.4190 n         1 MOL     -0.596990
      8 C3         -7.6170   -0.6850    0.8930 c3        1 MOL      0.566057
      9 C4         -6.8050   -1.9430    1.1750 c         1 MOL      0.338656
     10 O2         -6.3920   -2.1690    2.2980 o         1 MOL     -0.397136
     11 C5         -8.6800   -0.4090    1.8910 c3        1 MOL     -0.542049
     12 C6         -8.3630   -0.0640    3.4180 c         1 MOL      0.750512
     13 O3         -9.1370   -0.3310    4.3350 o         1 MOL     -0.587729
     14 O4         -7.3120    0.4900    3.8060 o         1 MOL     -0.587729
     15 H4         -9.0920   -1.2610   -0.5480 hn        1 MOL      0.247354
     16 H5         -6.8210    0.0620    0.8250 h1        1 MOL     -0.007739
     17 H6         -9.2950   -1.3110    1.8540 hc        1 MOL      0.102923
     18 H7         -9.1910    0.4590    1.4780 hc        1 MOL      0.102923
     19 N2         -6.4970   -2.6290    0.0790 n         1 MOL     -0.333126
     20 C7         -5.9020   -3.9440   -0.0480 c3        1 MOL      0.157764
     21 C8         -4.5200   -4.0250    0.5330 c         1 MOL      0.481344
     22 O5         -4.2020   -4.9550    1.2420 o         1 MOL     -0.551103
     23 C9         -6.0060   -4.5560   -1.4490 c3        1 MOL      0.038741
     24 C10        -7.4490   -4.3090   -2.0740 c3        1 MOL     -0.171188
     25 C11        -7.7470   -5.2670   -3.2720 c3        1 MOL      0.154252
     26 C12        -9.1330   -5.0490   -3.8400 c3        1 MOL      0.013429
     27 N3         -9.4490   -5.8860   -4.9880 n4        1 MOL     -0.011518
     28 H8         -6.8810   -2.1960   -0.7550 hn        1 MOL      0.130123
     29 H9         -6.4910   -4.6530    0.5320 h1        1 MOL      0.025460
     30 H10        -5.7380   -5.6180   -1.4790 hc        1 MOL      0.007684
     31 H11        -5.2340   -4.0190   -2.0010 hc        1 MOL      0.007684
     32 H12        -7.5420   -3.2470   -2.3350 hc        1 MOL      0.044599
     33 H13        -8.2490   -4.4990   -1.3530 hc        1 MOL      0.044599
     34 H14        -7.6890   -6.3110   -2.9660 hc        1 MOL     -0.007575
     35 H15        -7.0540   -5.0860   -4.1020 hc        1 MOL     -0.007575
     36 H16        -9.2190   -3.9830   -4.0470 hx        1 MOL      0.042803
     37 H17        -9.8650   -5.3690   -3.1050 hx        1 MOL      0.042803
     38 H18        -9.0520   -6.8080   -4.8640 hn        1 MOL      0.144198
     39 H19       -10.4440   -5.9380   -5.0960 hn        1 MOL      0.144198
     40 H20        -9.1740   -5.6600   -5.9330 hn        1 MOL      0.144198
     41 N4         -3.5620   -3.1700    0.1980 n         1 MOL     -0.436184
     42 C13        -3.6520   -1.9120   -0.6440 c3        1 MOL      0.057710
     43 C14        -3.8900   -0.6990    0.2070 c         1 MOL      0.071447
     44 O6         -3.5570   -0.7020    1.4120 o         1 MOL     -0.372037
     45 C15        -2.2850   -1.6840   -1.3130 c3        1 MOL     -0.049592
     46 C16        -1.0460   -1.9540   -0.4120 c         1 MOL      0.266278
     47 O7         -0.9210   -1.3530    0.6800 o         1 MOL     -0.539555
     48 O8         -0.3540   -2.9530   -0.7590 o         1 MOL     -0.539555
     49 H21        -2.7340   -3.2570    0.7630 hn        1 MOL      0.412140
     50 H22        -4.4440   -1.8910   -1.3920 h1        1 MOL      0.084016
     51 H23        -2.1790   -0.6430   -1.6430 hc        1 MOL      0.024093
     52 H24        -2.1680   -2.2410   -2.2380 hc        1 MOL      0.024093
     53 N5         -4.2560    0.3660   -0.4560 n         1 MOL     -0.081557
     54 C17        -4.4250    1.6630    0.1880 c3        1 MOL     -0.152722
     55 C18        -3.1380    2.4390    0.5270 c         1 MOL      0.473547
     56 O9         -2.0000    1.9580    0.5690 o         1 MOL     -0.633702
     57 H25        -4.3800    0.2560   -1.4490 hn        1 MOL      0.216441
     58 H26        -5.0210    1.5360    1.0860 h1        1 MOL      0.117425
     59 H27        -5.0950    2.1690   -0.5110 h1        1 MOL      0.117425
     60 N6         -3.3820    3.6080    0.9930 n         1 MOL     -0.311487
     61 C19        -2.4380    4.6590    1.4430 c3        1 MOL      0.203294
     62 C20        -3.0240    6.0410    1.0450 c         1 MOL      0.528297
     63 O10        -4.1920    6.3470    0.8030 o         1 MOL     -0.521374
     64 C21        -2.2720    4.4950    2.9970 c3        1 MOL     -0.478205
     65 C22        -1.7000    3.1430    3.4200 c         1 MOL      0.674808
     66 O11        -2.2310    2.5710    4.4380 o         1 MOL     -0.614168
     67 O12        -0.5970    2.6810    2.9480 o         1 MOL     -0.614168
     68 H28        -4.3510    3.8680    1.0980 hn        1 MOL      0.230043
     69 H29        -1.4980    4.5410    0.9080 h1        1 MOL      0.130122
     70 H30        -3.3020    4.5640    3.3350 hc        1 MOL      0.137747
     71 H31        -1.7050    5.3250    3.4270 hc        1 MOL      0.137747
     72 N7         -2.0910    7.0350    1.1430 n         1 MOL     -0.540453
     73 C23        -0.6430    6.9610    1.3980 c3        1 MOL      0.058440
     74 C24         0.2620    6.5040    0.3060 c         1 MOL      0.628574
     75 O13         0.0180    6.7230   -0.8890 o         1 MOL     -0.536214
     76 H32        -2.4510    7.9780    1.2230 hn        1 MOL      0.336675
     77 H33        -0.4880    6.2870    2.2500 h1        1 MOL      0.029769
     78 H34        -0.3060    7.9630    1.6530 h1        1 MOL      0.029769
     79 N8          1.3210    5.7620    0.6990 n         1 MOL     -0.605452
     80 C25         2.1900    4.9910   -0.1340 c3        1 MOL      0.033868
     81 C26         1.4990    3.7080   -0.6160 c         1 MOL      0.497125
     82 O14         0.9180    2.9630    0.2130 o         1 MOL     -0.717021
     83 C27         3.4750    4.5220    0.5920 c3        1 MOL      0.564709
     84 C28         4.3530    5.5990    1.1940 c3        1 MOL     -0.338125
     85 O15         4.2800    3.9340   -0.3350 oh        1 MOL     -0.676371
     86 H35         1.4220    5.5120    1.6710 hn        1 MOL      0.309642
     87 H36         2.5080    5.6470   -0.9360 h1        1 MOL      0.113724
     88 H37         3.2180    3.8120    1.3750 h1        1 MOL     -0.083586
     89 H38         4.8400    3.3570    0.1830 ho        1 MOL      0.414819
     90 H39         4.3170    6.4500    0.5110 hc        1 MOL      0.077205
     91 H40         3.9400    5.9020    2.1560 hc        1 MOL      0.077205
     92 H41         5.3690    5.2200    1.3220 hc        1 MOL      0.077205
     93 N9          1.3640    3.5550   -1.9460 n         1 MOL     -0.529781
     94 C29         0.6390    2.4650   -2.6710 c3        1 MOL      0.079679
     95 C30         1.0560    1.0810   -2.2370 c         1 MOL      0.607618
     96 O16         0.5090    0.6040   -1.2790 o         1 MOL     -0.368676
     97 C31        -0.8770    2.7560   -2.7010 c3        1 MOL      0.424829
     98 C32        -1.2350    4.1740   -3.1550 c3        1 MOL      0.033629
     99 C33        -1.4930    1.7380   -3.6910 c3        1 MOL     -0.629687
    100 C34        -2.7740    4.4050   -2.9840 c3        1 MOL     -0.218598
    101 H42         1.7080    4.2540   -2.5790 hn        1 MOL      0.302700
    102 H43         0.8950    2.5500   -3.7220 h1        1 MOL     -0.008096
    103 H44        -1.2490    2.5710   -1.6990 hc        1 MOL     -0.015790
    104 H45        -0.9100    4.2950   -4.1970 hc        1 MOL     -0.008124
    105 H46        -0.6160    4.8900   -2.6190 hc        1 MOL     -0.008124
    106 H47        -1.2630    2.0660   -4.7030 hc        1 MOL      0.137743
    107 H48        -1.2350    0.6960   -3.5170 hc        1 MOL      0.137743
    108 H49        -2.5700    1.7670   -3.5110 hc        1 MOL      0.137743
    109 H50        -3.3710    3.6860   -3.5550 hc        1 MOL      0.045151
    110 H51        -3.0370    4.3470   -1.9230 hc        1 MOL      0.045151
    111 H52        -3.0100    5.4360   -3.2290 hc        1 MOL      0.045151
    112 N10         2.0590    0.5270   -3.0020 n         1 MOL     -0.579153
    113 C35         2.5630   -0.8690   -2.9450 c3        1 MOL     -0.024354
    114 C36         4.0910   -1.0470   -3.1210 c         1 MOL      0.529033
    115 O17         4.5020   -2.2300   -3.1700 o         1 MOL     -0.549051
    116 C37         1.8360   -1.8000   -3.9500 c3        1 MOL      0.275477
    117 C38         1.7990   -1.3760   -5.4340 c3        1 MOL     -0.226652
    118 O18         0.4870   -1.8950   -3.5990 oh        1 MOL     -0.535746
    119 H53         2.3410    1.0190   -3.8280 hn        1 MOL      0.313506
    120 H54         2.4180   -1.2320   -1.9270 h1        1 MOL      0.109877
    121 H55         2.3080   -2.7830   -3.9340 h1        1 MOL      0.039338
    122 H56         0.3260   -2.3530   -2.7780 ho        1 MOL      0.322848
    123 H57         2.7560   -0.9410   -5.7040 hc        1 MOL      0.056544
    124 H58         1.5880   -2.2360   -6.0700 hc        1 MOL      0.056544
    125 H59         0.9960   -0.6840   -5.6920 hc        1 MOL      0.056544
    126 N11         4.8890    0.0310   -3.0160 n         1 MOL     -0.252551
    127 C39         6.3200   -0.1060   -2.9280 c3        1 MOL     -0.244152
    128 C40         6.7300   -0.5450   -1.5040 c         1 MOL      0.553606
    129 O19         7.1910    0.2830   -0.6680 o         1 MOL     -0.523767
    130 C41         7.0520    1.2270   -3.3770 c3        1 MOL      0.428689
    131 C42         6.9660    1.5260   -4.8800 c3        1 MOL     -0.460532
    132 O20         6.5130    2.4030   -2.6620 oh        1 MOL     -0.552073
    133 H60         4.4730    0.9390   -3.1460 hn        1 MOL      0.218263
    134 H61         6.5980   -0.9120   -3.6060 h1        1 MOL      0.101164
    135 H62         8.1050    1.2100   -3.0750 h1        1 MOL     -0.009519
    136 H63         6.3700    2.0310   -1.7950 ho        1 MOL      0.312023
    137 H64         5.9440    1.7890   -5.1710 hc        1 MOL      0.128216
    138 H65         7.4750    2.4730   -5.0650 hc        1 MOL      0.128216
    139 H66         7.5000    0.7250   -5.3970 hc        1 MOL      0.128216
    140 N12         6.6640   -1.8190   -1.1950 n         1 MOL     -0.321662
    141 C43         6.7250   -2.4220    0.1650 c3        1 MOL      0.028309
    142 C44         5.5640   -1.9390    1.0700 c         1 MOL      0.600798
    143 O21         5.0990   -0.8160    0.9480 o         1 MOL     -0.535481
    144 C45         8.1660   -2.3670    0.7750 c3        1 MOL     -0.550943
    145 C46         9.3130   -2.7000   -0.1880 c3        1 MOL      0.294166
    146 C47        10.6640   -2.3140    0.2960 c3        1 MOL      0.013636
    147 C48        11.7410   -2.3660   -0.8480 c3        1 MOL      0.054101
    148 N13        13.1070   -2.3290   -0.3320 n4        1 MOL     -0.156532
    149 H67         6.3890   -2.4160   -1.9610 hn        1 MOL      0.247278
    150 H68         6.3500   -3.4360    0.0060 h1        1 MOL      0.085628
    151 H69         8.2210   -3.0290    1.6440 hc        1 MOL      0.175634
    152 H70         8.4010   -1.3290    1.0090 hc        1 MOL      0.175634
    153 H71         9.1370   -2.2380   -1.1620 hc        1 MOL     -0.055113
    154 H72         9.2880   -3.7890   -0.2300 hc        1 MOL     -0.055113
    155 H73        10.8620   -3.1040    1.0180 hc        1 MOL      0.013612
    156 H74        10.6730   -1.3520    0.8150 hc        1 MOL      0.013612
    157 H75        11.5260   -1.5120   -1.4890 hx        1 MOL      0.050396
    158 H76        11.5860   -3.2460   -1.4810 hx        1 MOL      0.050396
    159 H77        13.8630   -2.0920   -0.9740 hn        1 MOL      0.204689
    160 H78        13.1620   -1.7230    0.4640 hn        1 MOL      0.204689
    161 H79        13.2710   -3.2200    0.1080 hn        1 MOL      0.204689
    162 N14         4.9600   -2.8300    1.8050 n         1 MOL     -0.560396
    163 C49         3.7590   -2.6590    2.6060 c3        1 MOL      0.276414
    164 C50         2.4500   -2.5030    1.7000 c         1 MOL      0.425496
    165 O22         1.8300   -1.4450    1.8210 o         1 MOL     -0.617548
    166 C51         3.6530   -3.7320    3.6690 c3        1 MOL     -0.006910
    167 C52         4.7990   -3.5360    4.6970 c3        1 MOL     -0.155722
    168 C53         4.6230   -4.4460    5.8350 c         1 MOL      0.701255
    169 O23         4.3900   -5.6750    5.6430 o         1 MOL     -0.637642
    170 O24         4.7290   -4.0100    7.0310 o         1 MOL     -0.637642
    171 H80         5.3860   -3.7430    1.8950 hn        1 MOL      0.331469
    172 H81         3.8720   -1.6790    3.0570 h1        1 MOL      0.039325
    173 H82         3.6960   -4.6640    3.1090 hc        1 MOL      0.025703
    174 H83         2.6830   -3.5740    4.1370 hc        1 MOL      0.025703
    175 H84         4.8060   -2.5090    5.0400 hc        1 MOL      0.004852
    176 H85         5.7280   -3.7990    4.1890 hc        1 MOL      0.004852
    177 N15         2.0380   -3.3880    0.7580 n         1 MOL     -0.322228
    178 C54         2.3950   -4.7330    0.3410 c3        1 MOL     -0.088290
    179 H86         3.4440   -4.7550    0.0440 h1        1 MOL      0.057446
    180 H87         2.2380   -5.4240    1.1690 h1        1 MOL      0.057446
    181 H88         1.7730   -5.0290   -0.5040 h1        1 MOL      0.057446
    182 H89         1.1510   -3.0180    0.4510 hn        1 MOL      0.336282
    183 Ca1         0.2470    0.8020    1.4190 Ca        1 MOL      1.732655
    184 O25         2.9600    1.0700    1.0710 oh        1 MOL     -0.820337
    185 H90         3.3770    1.7860    1.5580 ho        1 MOL      0.398152
    186 H91         3.6670    0.4510    0.8910 ho        1 MOL      0.398152
    187 O26         1.3870    0.9200    3.7080 oh        1 MOL     -0.820337
    188 H92         2.1560    0.5390    4.1380 ho        1 MOL      0.398152
    189 H93         0.8400    1.2200    4.4370 ho        1 MOL      0.398152
    190 O27        -1.4380   -0.0200    3.6020 oh        1 MOL     -0.820337
    191 H94        -2.1530    0.6030    3.7640 ho        1 MOL      0.398152
    192 H95        -1.8510   -0.7380    3.1230 ho        1 MOL      0.398152
@<TRIPOS>BOND
     1    1    2 1   
     2    1    4 1   
     3    1    5 1   
     4    1    6 1   
     5    2    3 2   
     6    2    7 1   
     7    7    8 1   
     8    7   15 1   
     9    8    9 1   
    10    8   11 1   
    11    8   16 1   
    12    9   10 2   
    13    9   19 1   
    14   11   12 1   
    15   11   17 1   
    16   11   18 1   
    17   12   13 1   
    18   12   14 1   
    19   19   20 1   
    20   19   28 1   
    21   20   21 1   
    22   20   23 1   
    23   20   29 1   
    24   21   22 2   
    25   21   41 1   
    26   23   24 1   
    27   23   30 1   
    28   23   31 1   
    29   24   25 1   
    30   24   32 1   
    31   24   33 1   
    32   25   26 1   
    33   25   34 1   
    34   25   35 1   
    35   26   27 1   
    36   26   36 1   
    37   26   37 1   
    38   27   38 1   
    39   27   39 1   
    40   27   40 1   
    41   41   42 1   
    42   41   49 1   
    43   42   43 1   
    44   42   45 1   
    45   42   50 1   
    46   43   44 2   
    47   43   53 1   
    48   45   46 1   
    49   45   51 1   
    50   45   52 1   
    51   46   47 1   
    52   46   48 1   
    53   53   54 1   
    54   53   57 1   
    55   54   55 1   
    56   54   58 1   
    57   54   59 1   
    58   55   56 2   
    59   55   60 1   
    60   60   61 1   
    61   60   68 1   
    62   61   62 1   
    63   61   64 1   
    64   61   69 1   
    65   62   63 2   
    66   62   72 1   
    67   64   65 1   
    68   64   70 1   
    69   64   71 1   
    70   65   66 1   
    71   65   67 1   
    72   72   73 1   
    73   72   76 1   
    74   73   74 1   
    75   73   77 1   
    76   73   78 1   
    77   74   75 2   
    78   74   79 1   
    79   79   80 1   
    80   79   86 1   
    81   80   81 1   
    82   80   83 1   
    83   80   87 1   
    84   81   82 2   
    85   81   93 1   
    86   83   84 1   
    87   83   85 1   
    88   83   88 1   
    89   84   90 1   
    90   84   91 1   
    91   84   92 1   
    92   85   89 1   
    93   93   94 1   
    94   93  101 1   
    95   94   95 1   
    96   94   97 1   
    97   94  102 1   
    98   95   96 2   
    99   95  112 1   
   100   97   98 1   
   101   97   99 1   
   102   97  103 1   
   103   98  100 1   
   104   98  104 1   
   105   98  105 1   
   106   99  106 1   
   107   99  107 1   
   108   99  108 1   
   109  100  109 1   
   110  100  110 1   
   111  100  111 1   
   112  112  113 1   
   113  112  119 1   
   114  113  114 1   
   115  113  116 1   
   116  113  120 1   
   117  114  115 2   
   118  114  126 1   
   119  116  117 1   
   120  116  118 1   
   121  116  121 1   
   122  117  123 1   
   123  117  124 1   
   124  117  125 1   
   125  118  122 1   
   126  126  127 1   
   127  126  133 1   
   128  127  128 1   
   129  127  130 1   
   130  127  134 1   
   131  128  129 2   
   132  128  140 1   
   133  130  131 1   
   134  130  132 1   
   135  130  135 1   
   136  131  137 1   
   137  131  138 1   
   138  131  139 1   
   139  132  136 1   
   140  140  141 1   
   141  140  149 1   
   142  141  142 1   
   143  141  144 1   
   144  141  150 1   
   145  142  143 2   
   146  142  162 1   
   147  144  145 1   
   148  144  151 1   
   149  144  152 1   
   150  145  146 1   
   151  145  153 1   
   152  145  154 1   
   153  146  147 1   
   154  146  155 1   
   155  146  156 1   
   156  147  148 1   
   157  147  157 1   
   158  147  158 1   
   159  148  159 1   
   160  148  160 1   
   161  148  161 1   
   162  162  163 1   
   163  162  171 1   
   164  163  164 1   
   165  163  166 1   
   166  163  172 1   
   167  164  165 2   
   168  164  177 1   
   169  166  167 1   
   170  166  173 1   
   171  166  174 1   
   172  167  168 1   
   173  167  175 1   
   174  167  176 1   
   175  168  169 1   
   176  168  170 1   
   177  177  178 1   
   178  177  182 1   
   179  178  179 1   
   180  178  180 1   
   181  178  181 1   
   182  184  185 1   
   183  184  186 1   
   184  187  188 1   
   185  187  189 1   
   186  190  191 1   
   187  190  192 1   
@<TRIPOS>SUBSTRUCTURE
     1 MOL         1 TEMP              0 ****  ****    0 ROOT
