@<TRIPOS>MOLECULE
MOL
  185   180     1     0     0
SMALL
resp


@<TRIPOS>ATOM
      1 C1         -5.7580    1.0790   -3.9210 c3        1 MOL     -0.352798
      2 C2         -6.4820    1.2300   -2.5570 c         1 MOL      0.588893
      3 O1         -5.7830    1.1820   -1.5820 o         1 MOL     -0.449076
      4 H1         -4.8360    1.6620   -3.9080 hc        1 MOL      0.097190
      5 H2         -5.5210    0.0290   -4.0950 hc        1 MOL      0.097190
      6 H3         -6.4050    1.4430   -4.7200 hc        1 MOL      0.097190
      7 N1         -7.8150    1.3010   -2.5780 n         1 MOL     -0.597043
      8 C3         -8.6600    1.4790   -1.3730 c3        1 MOL     -0.018476
      9 C4         -8.4460    0.3520   -0.2440 c         1 MOL      0.604252
     10 O2         -8.4990    0.5680    0.9560 o         1 MOL     -0.518281
     11 C5         -8.4330    2.8820   -0.7130 c3        1 MOL     -0.301763
     12 C6         -8.5140    3.9530   -1.7700 c         1 MOL      0.831208
     13 O3         -7.6710    4.8500   -1.7500 o         1 MOL     -0.688528
     14 O4         -9.5380    4.1840   -2.5240 o         1 MOL     -0.688528
     15 H4         -8.2480    1.2460   -3.4880 hn        1 MOL      0.357640
     16 H5         -9.7320    1.4250   -1.5510 h1        1 MOL      0.089149
     17 H6         -7.4830    2.7810   -0.1920 hc        1 MOL      0.100576
     18 H7         -9.1750    3.0190    0.0680 hc        1 MOL      0.100576
     19 N2         -8.1940   -0.9070   -0.6240 n         1 MOL     -0.739107
     20 C7         -7.9540   -2.0810    0.2520 c3        1 MOL      0.378699
     21 C8         -6.4630   -2.4890    0.3210 c         1 MOL      0.432161
     22 O5         -6.1630   -3.6230    0.6060 o         1 MOL     -0.513372
     23 C9         -8.9470   -3.2560   -0.0210 c3        1 MOL     -0.252688
     24 C10       -10.4320   -2.8350    0.0860 c3        1 MOL      0.134286
     25 C11       -11.2670   -4.0400    0.4260 c3        1 MOL     -0.074306
     26 C12       -12.7650   -3.8280    0.3400 c3        1 MOL      0.152641
     27 N3        -13.5230   -4.9300    0.9580 n4        1 MOL     -0.476799
     28 H8         -8.2170   -1.0130   -1.6320 hn        1 MOL      0.323798
     29 H9         -8.1180   -1.6580    1.2470 h1        1 MOL      0.058825
     30 H10        -8.8270   -3.9210    0.8350 hc        1 MOL      0.063645
     31 H11        -8.7630   -3.7620   -0.9630 hc        1 MOL      0.063645
     32 H12       -10.8580   -2.3260   -0.7860 hc        1 MOL      0.002793
     33 H13       -10.5010   -2.1220    0.9000 hc        1 MOL      0.002793
     34 H14       -10.9960   -4.3660    1.4290 hc        1 MOL      0.037284
     35 H15       -11.0140   -4.8320   -0.2770 hc        1 MOL      0.037284
     36 H16       -13.0180   -3.6080   -0.6940 hx        1 MOL      0.049986
     37 H17       -13.0360   -2.8620    0.7670 hx        1 MOL      0.049986
     38 H18       -13.2000   -5.1120    1.9020 hn        1 MOL      0.330489
     39 H19       -14.4840   -4.6520    1.1150 hn        1 MOL      0.330489
     40 H20       -13.6000   -5.7090    0.3130 hn        1 MOL      0.330489
     41 N4         -5.5210   -1.5010    0.0830 n         1 MOL     -0.321532
     42 C13        -4.0620   -1.6990    0.2280 c3        1 MOL     -0.417043
     43 C14        -3.6200   -2.2790    1.6220 c         1 MOL      0.777131
     44 O6         -4.2030   -1.9130    2.6080 o         1 MOL     -0.536913
     45 C15        -3.3030   -0.3690    0.0620 c3        1 MOL      0.133334
     46 C16        -1.7970   -0.6160   -0.1810 c         1 MOL      0.313209
     47 O7         -1.0290   -0.7200    0.8170 o         1 MOL     -0.593964
     48 O8         -1.3420   -0.9260   -1.2750 o         1 MOL     -0.593964
     49 H21        -5.7910   -0.5470   -0.1400 hn        1 MOL      0.283860
     50 H22        -3.6840   -2.2380   -0.6390 h1        1 MOL      0.168373
     51 H23        -3.5520    0.2820    0.8970 hc        1 MOL      0.063654
     52 H24        -3.7200    0.2900   -0.6940 hc        1 MOL      0.063654
     53 N5         -2.5810   -3.1470    1.6580 n         1 MOL     -0.565628
     54 C17        -2.1400   -3.8730    2.8480 c3        1 MOL     -0.095618
     55 C18        -1.1570   -3.0910    3.7510 c         1 MOL      0.505603
     56 O9         -0.7800   -3.5640    4.7970 o         1 MOL     -0.565346
     57 H25        -2.0580   -3.3180    0.8140 hn        1 MOL      0.363259
     58 H26        -1.6920   -4.7980    2.4850 h1        1 MOL      0.102941
     59 H27        -3.0260   -4.1840    3.4020 h1        1 MOL      0.102941
     60 N6         -0.6600   -1.9560    3.3070 n         1 MOL     -0.214876
     61 C19         0.0820   -1.0280    4.1860 c3        1 MOL     -0.090428
     62 C20        -0.2710    0.4610    4.0650 c         1 MOL      0.464697
     63 O10         0.3390    1.2990    4.7120 o         1 MOL     -0.515965
     64 C21         1.5640   -1.3300    4.1680 c3        1 MOL     -0.310355
     65 C22         2.3320   -0.8780    2.9180 c         1 MOL      0.809404
     66 N7          3.3080   -0.0940    3.0200 n         1 MOL     -0.723515
     67 O11         1.9380   -1.3130    1.8320 o         1 MOL     -0.802130
     68 H28        -0.8850   -1.5920    2.4000 hn        1 MOL      0.231469
     69 H29        -0.1270   -1.2930    5.2260 h1        1 MOL      0.148352
     70 H30         1.7800   -2.3890    4.3350 hc        1 MOL      0.110388
     71 H31         1.8990   -0.8010    5.0550 hc        1 MOL      0.110388
     72 H32         3.6430    0.2470    3.9130 hn        1 MOL      0.334739
     73 H33         3.7630    0.1760    2.1570 hn        1 MOL      0.334739
     74 N8         -1.2750    0.7840    3.2390 n         1 MOL     -0.206023
     75 C23        -1.7790    2.1760    3.0200 c3        1 MOL     -0.222824
     76 C24        -1.0950    3.0400    1.9280 c         1 MOL      0.556182
     77 O12        -1.0160    4.2570    2.1000 o         1 MOL     -0.531651
     78 H34        -1.7580    0.0980    2.6630 hn        1 MOL      0.106296
     79 H35        -1.7770    2.7830    3.9260 h1        1 MOL      0.129856
     80 H36        -2.7800    2.0250    2.6380 h1        1 MOL      0.129856
     81 N9         -0.5470    2.3780    0.9320 n         1 MOL     -0.459978
     82 C25         0.1730    2.9950   -0.1700 c3        1 MOL      0.490174
     83 C26         1.4150    2.2200   -0.5450 c         1 MOL      0.189177
     84 O13         1.4540    1.0390   -0.3330 o         1 MOL     -0.340808
     85 C27        -0.8000    3.3340   -1.3610 c3        1 MOL     -0.100946
     86 C28        -2.0210    4.1300   -1.1230 ca        1 MOL      0.052400
     87 C29        -2.0960    5.5220   -0.9600 ca        1 MOL     -0.187625
     88 C30        -3.2540    3.4770   -1.2140 ca        1 MOL     -0.187625
     89 C31        -3.2800    6.2690   -0.9120 ca        1 MOL     -0.190115
     90 C32        -4.5280    4.1660   -1.1570 ca        1 MOL     -0.190115
     91 C33        -4.5180    5.5830   -1.0520 ca        1 MOL      0.274071
     92 O14        -5.6960    6.2590   -0.8880 oh        1 MOL     -0.514183
     93 H37        -0.5440    1.3660    1.0300 hn        1 MOL      0.209466
     94 H38         0.5780    3.9540    0.1660 h1        1 MOL     -0.070006
     95 H39        -1.0740    2.3630   -1.7540 hc        1 MOL      0.012515
     96 H40        -0.2040    3.8860   -2.0870 hc        1 MOL      0.012515
     97 H41        -1.1780    6.0900   -0.9640 ha        1 MOL      0.100254
     98 H42        -3.4050    2.4070   -1.2510 ha        1 MOL      0.100254
     99 H43        -3.2960    7.3370   -0.7710 ha        1 MOL      0.135821
    100 H44        -5.4880    3.6680   -1.1470 ha        1 MOL      0.135821
    101 H45        -6.3940    5.6940   -1.2200 ho        1 MOL      0.411767
    102 N10         2.4270    2.8770   -1.0180 n         1 MOL     -0.325132
    103 C34         3.7360    2.2660   -1.1160 c3        1 MOL     -0.055005
    104 C35         4.5210    1.9680    0.2410 c         1 MOL      0.414007
    105 O15         4.8790    0.8310    0.5830 o         1 MOL     -0.364237
    106 C36         4.6560    3.0820   -2.0540 c3        1 MOL      0.046210
    107 C37         4.0540    3.3430   -3.5110 c3        1 MOL     -0.025364
    108 C38         6.0520    2.4620   -2.1590 c3        1 MOL     -0.328522
    109 C39         3.7410    2.0440   -4.2760 c3        1 MOL     -0.311276
    110 H46         2.3850    3.8390   -1.3240 hn        1 MOL      0.281783
    111 H47         3.7550    1.3220   -1.6550 h1        1 MOL      0.061937
    112 H48         4.7440    4.0960   -1.6700 hc        1 MOL     -0.025587
    113 H49         4.7880    3.9180   -4.0770 hc        1 MOL      0.046757
    114 H50         3.1790    3.9890   -3.5560 hc        1 MOL      0.046757
    115 H51         5.9680    1.4520   -2.5510 hc        1 MOL      0.111080
    116 H52         6.7180    3.0610   -2.7910 hc        1 MOL      0.111080
    117 H53         6.5890    2.4920   -1.2110 hc        1 MOL      0.111080
    118 H54         3.5500    2.2380   -5.3320 hc        1 MOL      0.095488
    119 H55         4.6610    1.4730   -4.3760 hc        1 MOL      0.095488
    120 H56         3.0060    1.4010   -3.7890 hc        1 MOL      0.095488
    121 N11         4.7060    3.0170    1.0190 n         1 MOL     -0.236869
    122 C40         5.3360    2.8590    2.3750 c3        1 MOL     -0.317847
    123 C41         6.7480    2.2420    2.2840 c         1 MOL      0.614331
    124 O16         7.1730    1.5470    3.1920 o         1 MOL     -0.467898
    125 C42         5.2320    4.1870    3.0970 c3        1 MOL      0.351631
    126 O17         5.9730    5.1870    2.4250 oh        1 MOL     -0.593391
    127 H57         4.2840    3.9170    0.8290 hn        1 MOL      0.252649
    128 H58         4.6960    2.1310    2.8620 h1        1 MOL      0.125892
    129 H59         5.5880    3.9690    4.1020 h1        1 MOL      0.031917
    130 H60         4.2100    4.5690    3.1810 h1        1 MOL      0.031917
    131 H61         5.7140    5.1900    1.5020 ho        1 MOL      0.365253
    132 N12         7.5030    2.5760    1.1790 n         1 MOL     -0.439432
    133 C43         8.8100    2.0760    0.7690 c3        1 MOL      0.155636
    134 C44         8.9450    0.5180    0.8780 c         1 MOL      0.489802
    135 O18         9.9280   -0.1150    1.2450 o         1 MOL     -0.495825
    136 C45         9.8660    2.8400    1.6350 c3        1 MOL     -0.385444
    137 H62         7.1180    3.1830    0.4590 hn        1 MOL      0.244955
    138 H63         9.0810    2.3790   -0.2440 h1        1 MOL      0.073493
    139 H64         9.7670    2.4480    2.6490 hc        1 MOL      0.116164
    140 H65        10.8930    2.4990    1.5220 hc        1 MOL      0.116164
    141 H66         9.8220    3.9160    1.5270 hc        1 MOL      0.116164
    142 N13         7.8630   -0.1050    0.3710 n         1 MOL     -0.463626
    143 C46         7.6240   -1.5540    0.5260 c3        1 MOL      0.322637
    144 C47         6.9660   -2.2100   -0.6900 c         1 MOL      0.538021
    145 O19         6.2300   -1.5380   -1.3680 o         1 MOL     -0.497065
    146 C48         6.7330   -1.7440    1.7290 c3        1 MOL     -0.370683
    147 H67         7.0780    0.4690    0.0950 hn        1 MOL      0.067534
    148 H68         8.5910   -2.0380    0.6330 h1        1 MOL     -0.003676
    149 H69         6.5220   -2.8080    1.8400 hc        1 MOL      0.105088
    150 H70         7.2010   -1.4780    2.6830 hc        1 MOL      0.105088
    151 H71         5.8200   -1.1350    1.6890 hc        1 MOL      0.105088
    152 N14         7.2500   -3.4370   -0.9730 n         1 MOL     -0.517100
    153 C49         6.7060   -4.2100   -2.0820 c3        1 MOL      0.045484
    154 C50         7.4250   -3.9000   -3.4490 c         1 MOL      0.413536
    155 O20         7.0520   -4.4910   -4.4510 o         1 MOL     -0.491272
    156 C51         5.1780   -4.3060   -2.1660 c3        1 MOL      0.028880
    157 C52         4.5260   -4.7690   -0.8320 c3        1 MOL     -0.082485
    158 C53         3.0740   -4.5700   -0.9710 c         1 MOL      0.712185
    159 O21         2.4880   -3.6690   -0.2860 o         1 MOL     -0.704205
    160 O22         2.4420   -5.2780   -1.7700 o         1 MOL     -0.704205
    161 H72         7.9110   -3.9560   -0.4070 hn        1 MOL      0.297322
    162 H73         7.0020   -5.2170   -1.7850 h1        1 MOL      0.092707
    163 H74         5.0540   -5.0990   -2.9100 hc        1 MOL      0.013336
    164 H75         4.7440   -3.3630   -2.5070 hc        1 MOL      0.013336
    165 H76         4.8740   -4.1300   -0.0130 hc        1 MOL      0.008688
    166 H77         4.7470   -5.8070   -0.5670 hc        1 MOL      0.008688
    167 N15         8.5460   -3.1640   -3.5070 n         1 MOL     -0.329682
    168 C54         9.1650   -2.5570   -4.7200 c3        1 MOL      0.011624
    169 H78        10.2090   -2.8620   -4.7860 h1        1 MOL      0.057039
    170 H79         8.6310   -2.8960   -5.6080 h1        1 MOL      0.057039
    171 H80         9.1070   -1.4710   -4.6530 h1        1 MOL      0.057039
    172 H81         8.7900   -2.8200   -2.5860 hn        1 MOL      0.211384
    173 Ca1         1.0500   -1.5890   -0.6280 Ca        1 MOL      1.824431
    174 O23        -0.8280   -3.6730   -0.5900 oh        1 MOL     -0.863707
    175 H82        -1.2660   -3.8590   -1.4230 ho        1 MOL      0.412448
    176 H83        -0.6210   -4.5420   -0.2310 ho        1 MOL      0.412448
    177 O24         3.5080   -1.2670   -1.0410 oh        1 MOL     -0.863707
    178 H84         4.0110   -0.6400   -0.5080 ho        1 MOL      0.412448
    179 H85         4.1740   -1.8080   -1.4690 ho        1 MOL      0.412448
    180 O25         1.0280   -3.3000   -2.8060 oh        1 MOL     -0.863707
    181 H86         1.6490   -4.0020   -2.5750 ho        1 MOL      0.412448
    182 H87         0.5510   -3.6420   -3.5620 ho        1 MOL      0.412448
    183 O26         1.0430   -0.2710   -3.0310 oh        1 MOL     -0.863707
    184 H88         0.9770    0.6030   -3.4160 ho        1 MOL      0.412448
    185 H89         0.8040   -0.8640   -3.7400 ho        1 MOL      0.412448
@<TRIPOS>BOND
     1    1    2 1   
     2    1    4 1   
     3    1    5 1   
     4    1    6 1   
     5    2    3 2   
     6    2    7 1   
     7    7    8 1   
     8    7   15 1   
     9    8    9 1   
    10    8   11 1   
    11    8   16 1   
    12    9   10 2   
    13    9   19 1   
    14   11   12 1   
    15   11   17 1   
    16   11   18 1   
    17   12   13 1   
    18   12   14 1   
    19   19   20 1   
    20   19   28 1   
    21   20   21 1   
    22   20   23 1   
    23   20   29 1   
    24   21   22 2   
    25   21   41 1   
    26   23   24 1   
    27   23   30 1   
    28   23   31 1   
    29   24   25 1   
    30   24   32 1   
    31   24   33 1   
    32   25   26 1   
    33   25   34 1   
    34   25   35 1   
    35   26   27 1   
    36   26   36 1   
    37   26   37 1   
    38   27   38 1   
    39   27   39 1   
    40   27   40 1   
    41   41   42 1   
    42   41   49 1   
    43   42   43 1   
    44   42   45 1   
    45   42   50 1   
    46   43   44 2   
    47   43   53 1   
    48   45   46 1   
    49   45   51 1   
    50   45   52 1   
    51   46   47 1   
    52   46   48 1   
    53   53   54 1   
    54   53   57 1   
    55   54   55 1   
    56   54   58 1   
    57   54   59 1   
    58   55   56 2   
    59   55   60 1   
    60   60   61 1   
    61   60   68 1   
    62   61   62 1   
    63   61   64 1   
    64   61   69 1   
    65   62   63 2   
    66   62   74 1   
    67   64   65 1   
    68   64   70 1   
    69   64   71 1   
    70   65   66 1   
    71   65   67 2   
    72   66   72 1   
    73   66   73 1   
    74   74   75 1   
    75   74   78 1   
    76   75   76 1   
    77   75   79 1   
    78   75   80 1   
    79   76   77 2   
    80   76   81 1   
    81   81   82 1   
    82   81   93 1   
    83   82   83 1   
    84   82   85 1   
    85   82   94 1   
    86   83   84 2   
    87   83  102 1   
    88   85   86 1   
    89   85   95 1   
    90   85   96 1   
    91   86   87 ar  
    92   86   88 ar  
    93   87   89 ar  
    94   87   97 1   
    95   88   90 ar  
    96   88   98 1   
    97   89   91 ar  
    98   89   99 1   
    99   90   91 ar  
   100   90  100 1   
   101   91   92 1   
   102   92  101 1   
   103  102  103 1   
   104  102  110 1   
   105  103  104 1   
   106  103  106 1   
   107  103  111 1   
   108  104  105 2   
   109  104  121 1   
   110  106  107 1   
   111  106  108 1   
   112  106  112 1   
   113  107  109 1   
   114  107  113 1   
   115  107  114 1   
   116  108  115 1   
   117  108  116 1   
   118  108  117 1   
   119  109  118 1   
   120  109  119 1   
   121  109  120 1   
   122  121  122 1   
   123  121  127 1   
   124  122  123 1   
   125  122  125 1   
   126  122  128 1   
   127  123  124 2   
   128  123  132 1   
   129  125  126 1   
   130  125  129 1   
   131  125  130 1   
   132  126  131 1   
   133  132  133 1   
   134  132  137 1   
   135  133  134 1   
   136  133  136 1   
   137  133  138 1   
   138  134  135 2   
   139  134  142 1   
   140  136  139 1   
   141  136  140 1   
   142  136  141 1   
   143  142  143 1   
   144  142  147 1   
   145  143  144 1   
   146  143  146 1   
   147  143  148 1   
   148  144  145 2   
   149  144  152 1   
   150  146  149 1   
   151  146  150 1   
   152  146  151 1   
   153  152  153 1   
   154  152  161 1   
   155  153  154 1   
   156  153  156 1   
   157  153  162 1   
   158  154  155 2   
   159  154  167 1   
   160  156  157 1   
   161  156  163 1   
   162  156  164 1   
   163  157  158 1   
   164  157  165 1   
   165  157  166 1   
   166  158  159 1   
   167  158  160 1   
   168  167  168 1   
   169  167  172 1   
   170  168  169 1   
   171  168  170 1   
   172  168  171 1   
   173  174  175 1   
   174  174  176 1   
   175  177  178 1   
   176  177  179 1   
   177  180  181 1   
   178  180  182 1   
   179  183  184 1   
   180  183  185 1   
@<TRIPOS>SUBSTRUCTURE
     1 MOL         1 TEMP              0 ****  ****    0 ROOT
