@<TRIPOS>MOLECULE
MOL
  189   185     1     0     0
SMALL
resp


@<TRIPOS>ATOM
      1 C1         -4.8300   -4.9640   -2.4820 c3        1 MOL     -0.362830
      2 C2         -5.4650   -3.9210   -1.5320 c         1 MOL      0.842984
      3 O1         -4.8290   -3.4010   -0.6320 o         1 MOL     -0.692668
      4 H1         -3.8410   -5.2360   -2.1130 hc        1 MOL      0.088160
      5 H2         -5.4590   -5.8530   -2.5190 hc        1 MOL      0.088160
      6 H3         -4.7410   -4.5380   -3.4810 hc        1 MOL      0.088160
      7 N1         -6.6960   -3.4850   -1.8090 n         1 MOL     -0.727319
      8 C3         -7.3800   -2.2150   -1.4970 c3        1 MOL      0.214330
      9 C4         -6.4320   -1.0130   -1.5110 c         1 MOL      0.487407
     10 O2         -5.9160   -0.6410   -0.4480 o         1 MOL     -0.525309
     11 C5         -8.2830   -2.3080   -0.2790 c3        1 MOL      0.036249
     12 C6         -7.6940   -3.0360    0.9500 c         1 MOL      0.752836
     13 O3         -6.8090   -2.4800    1.6760 o         1 MOL     -0.733151
     14 O4         -8.1470   -4.1350    1.1820 o         1 MOL     -0.733151
     15 H4         -7.2150   -4.1190   -2.3890 hn        1 MOL      0.323139
     16 H5         -7.9960   -1.9670   -2.3570 h1        1 MOL     -0.007119
     17 H6         -9.1690   -2.8280   -0.6390 hc        1 MOL     -0.030605
     18 H7         -8.6550   -1.2990   -0.0940 hc        1 MOL     -0.030605
     19 N2         -6.0680   -0.4840   -2.7100 n         1 MOL     -0.486158
     20 C7         -5.1380    0.6160   -3.0130 c3        1 MOL      0.093445
     21 C8         -5.5520    1.9750   -2.4460 c         1 MOL      0.374698
     22 O5         -5.3630    2.9740   -3.1880 o         1 MOL     -0.544141
     23 C9         -3.7020    0.1740   -2.7590 c3        1 MOL      0.388680
     24 C10        -2.6740    1.1960   -3.1440 c3        1 MOL     -0.270470
     25 C11        -3.2320   -1.1720   -3.2890 c3        1 MOL     -0.217795
     26 C12        -2.5490    1.7030   -4.4980 c3        1 MOL     -0.107005
     27 H8         -6.5290   -0.8810   -3.5190 hn        1 MOL      0.274131
     28 H9         -5.1600    0.6980   -4.1010 h1        1 MOL      0.053354
     29 H10        -3.6500    0.0830   -1.6820 hc        1 MOL     -0.182356
     30 H11        -1.6790    0.8010   -2.9140 hc        1 MOL      0.156773
     31 H12        -2.7140    2.0760   -2.4980 hc        1 MOL      0.156773
     32 H13        -3.7800   -1.9120   -2.7100 hc        1 MOL      0.029840
     33 H14        -3.5520   -1.3400   -4.3130 hc        1 MOL      0.029840
     34 H15        -2.1700   -1.3470   -3.0620 hc        1 MOL      0.029840
     35 H16        -1.9830    0.9370   -5.0450 hc        1 MOL      0.015469
     36 H17        -3.5050    1.8170   -4.9970 hc        1 MOL      0.015469
     37 H18        -1.9070    2.5890   -4.5390 hc        1 MOL      0.015469
     38 N3         -6.0130    2.1130   -1.1760 n         1 MOL     -0.166279
     39 C13        -6.7610    3.3250   -0.7770 c3        1 MOL      0.179991
     40 C14        -5.9280    4.6130   -0.5350 c         1 MOL      0.457791
     41 O6         -6.4710    5.6830   -0.8130 o         1 MOL     -0.557016
     42 C15        -7.6320    3.0940    0.4840 c3        1 MOL     -0.248276
     43 C16        -8.4170    1.8030    0.4300 c         1 MOL      0.843463
     44 O7         -8.1620    0.8670    1.2580 o         1 MOL     -0.719660
     45 O8         -9.4520    1.7770   -0.2320 o         1 MOL     -0.719660
     46 H19        -6.3060    1.2940   -0.6560 hn        1 MOL      0.078092
     47 H20        -7.5730    3.5760   -1.4710 h1        1 MOL      0.017087
     48 H21        -8.3060    3.9450    0.4400 hc        1 MOL      0.033252
     49 H22        -7.1080    3.1720    1.4340 hc        1 MOL      0.033252
     50 N4         -4.6310    4.5300   -0.0780 n         1 MOL     -0.391359
     51 C17        -3.7210    3.4250    0.3790 c3        1 MOL      0.083438
     52 C18        -2.4900    4.1620    1.1080 c         1 MOL      0.579287
     53 O9         -2.1970    5.3290    0.8760 o         1 MOL     -0.576272
     54 H23        -4.2040    5.4480   -0.0590 hn        1 MOL      0.237975
     55 H24        -3.2970    2.9300   -0.4850 h1        1 MOL      0.013377
     56 H25        -4.2290    2.8130    1.1220 h1        1 MOL      0.013377
     57 N5         -1.7680    3.5440    2.0080 n         1 MOL     -0.509150
     58 C19        -1.8400    2.2900    2.7130 c3        1 MOL      0.500332
     59 C20        -2.0820    1.0960    1.7380 c         1 MOL      0.255317
     60 O10        -3.1330    0.4890    1.7180 o         1 MOL     -0.482192
     61 C21        -2.7950    2.3880    3.9610 c3        1 MOL     -0.422385
     62 C22        -2.6070    1.2010    4.9480 c         1 MOL      0.745215
     63 O11        -3.3170    1.1730    5.9870 o         1 MOL     -0.688886
     64 O12        -1.7840    0.3320    4.6210 o         1 MOL     -0.688886
     65 H26        -1.0150    4.1740    2.2330 hn        1 MOL      0.228252
     66 H27        -0.8530    2.0770    3.1250 h1        1 MOL     -0.007318
     67 H28        -3.7640    2.3540    3.4600 hc        1 MOL      0.071439
     68 H29        -2.6320    3.3460    4.4480 hc        1 MOL      0.071439
     69 N6         -1.0700    0.5770    0.9940 n         1 MOL     -0.287869
     70 C23         0.3230    1.1490    0.9600 c3        1 MOL     -0.158690
     71 C24         0.5130    2.3980    0.1820 c         1 MOL      0.466729
     72 O13        -0.2610    2.8420   -0.5960 o         1 MOL     -0.485618
     73 H30        -1.2070   -0.2500    0.4330 hn        1 MOL      0.253283
     74 H31         0.9000    0.4420    0.3510 h1        1 MOL      0.100225
     75 H32         0.7890    1.3250    1.9310 h1        1 MOL      0.100225
     76 N7          1.6760    3.0170    0.3590 n         1 MOL     -0.462082
     77 C25         2.0330    4.2880   -0.4610 c3        1 MOL     -0.082214
     78 C26         2.7540    3.9650   -1.7730 c         1 MOL      0.464191
     79 O14         2.9000    4.8570   -2.6110 o         1 MOL     -0.523707
     80 C27         2.8960    5.2140    0.3620 c3        1 MOL      0.215598
     81 C28         2.1840    5.6130    1.6670 c3        1 MOL     -0.031166
     82 C29         2.6140    6.8770    2.4180 c         1 MOL      0.592151
     83 N8          2.0310    7.1760    3.6270 n         1 MOL     -0.827433
     84 O15         3.3410    7.7200    1.8620 o         1 MOL     -0.541859
     85 H33         2.1520    2.9140    1.2420 hn        1 MOL      0.289396
     86 H34         1.1670    4.8800   -0.7420 h1        1 MOL      0.159723
     87 H35         3.2730    6.0680   -0.2010 hc        1 MOL     -0.064037
     88 H36         3.8060    4.6550    0.5910 hc        1 MOL     -0.064037
     89 H37         2.3220    4.7990    2.3870 hc        1 MOL      0.016141
     90 H38         1.1030    5.6820    1.5360 hc        1 MOL      0.016141
     91 H39         1.2860    6.6190    4.0160 hn        1 MOL      0.376047
     92 H40         2.1330    8.1540    3.8760 hn        1 MOL      0.376047
     93 N9          3.0230    2.6910   -1.9740 n         1 MOL     -0.208604
     94 C30         3.3230    2.1950   -3.2950 c3        1 MOL     -0.080874
     95 C31         4.6770    1.5560   -3.3350 c         1 MOL      0.621483
     96 O16         5.3600    1.4700   -4.3720 o         1 MOL     -0.549300
     97 C32         2.3150    1.1450   -3.7350 c3        1 MOL      0.102930
     98 C33         0.8720    1.6050   -3.7570 c3        1 MOL     -0.087417
     99 C34         2.2950   -0.0870   -2.8780 c3        1 MOL     -0.087417
    100 H41         2.7580    2.0440   -1.2370 hn        1 MOL      0.182577
    101 H42         3.2460    2.9880   -4.0490 h1        1 MOL      0.101963
    102 H43         2.5230    0.8380   -4.7620 hc        1 MOL      0.004799
    103 H44         0.2370    0.7760   -4.0720 hc        1 MOL      0.018165
    104 H45         0.5030    1.8560   -2.7590 hc        1 MOL      0.018165
    105 H46         0.7990    2.4530   -4.4320 hc        1 MOL      0.018165
    106 H47         2.1960    0.1310   -1.8180 hc        1 MOL      0.018165
    107 H48         1.5110   -0.7820   -3.1890 hc        1 MOL      0.018165
    108 H49         3.2280   -0.6320   -3.0360 hc        1 MOL      0.018165
    109 N10         5.2380    1.0370   -2.2290 n         1 MOL     -0.365809
    110 C35         6.6650    0.7220   -2.2350 c3        1 MOL     -0.099248
    111 C36         6.9730   -0.6440   -1.5720 c         1 MOL      0.642561
    112 O17         7.7380   -1.4510   -1.9720 o         1 MOL     -0.571819
    113 C37         7.4540    1.8470   -1.4900 c3        1 MOL     -0.305505
    114 C38         7.2220    3.2120   -2.1700 c         1 MOL      0.576132
    115 N11         6.4560    4.0480   -1.6170 n         1 MOL     -0.717551
    116 O18         7.6370    3.4330   -3.2540 o         1 MOL     -0.522283
    117 H50         4.6880    0.7760   -1.4140 hn        1 MOL      0.104172
    118 H51         7.1080    0.7360   -3.2340 h1        1 MOL      0.149768
    119 H52         8.5130    1.5990   -1.5070 hc        1 MOL      0.108630
    120 H53         7.1650    1.8530   -0.4370 hc        1 MOL      0.108630
    121 H54         6.1540    3.8800   -0.6690 hn        1 MOL      0.358094
    122 H55         6.3050    4.8920   -2.1620 hn        1 MOL      0.358094
    123 N12         6.1680   -0.8960   -0.5610 n         1 MOL     -0.392482
    124 C39         6.0940   -2.1430    0.2090 c3        1 MOL      0.089936
    125 C40         4.6790   -2.7450    0.3530 c         1 MOL      0.402502
    126 O19         3.6770   -2.0770    0.0200 o         1 MOL     -0.444709
    127 C41         6.6630   -1.7860    1.6030 c3        1 MOL     -0.059624
    128 C42         7.9660   -1.0490    1.6350 ca        1 MOL      0.055962
    129 C43         9.1580   -1.7430    1.3440 ca        1 MOL     -0.175812
    130 C44         7.9580    0.3190    1.9110 ca        1 MOL     -0.175812
    131 C45        10.3730   -1.0080    1.4000 ca        1 MOL     -0.189616
    132 C46         9.2040    0.9820    2.0350 ca        1 MOL     -0.189616
    133 C47        10.4370    0.3260    1.7940 ca        1 MOL      0.238385
    134 O20        11.5970    1.0550    1.7530 oh        1 MOL     -0.479304
    135 H56         5.5460   -0.1430   -0.3220 hn        1 MOL      0.316437
    136 H57         6.7690   -2.8040   -0.3270 h1        1 MOL      0.057980
    137 H58         6.9240   -2.7160    2.1060 hc        1 MOL      0.049636
    138 H59         5.9150   -1.1910    2.1330 hc        1 MOL      0.049636
    139 H60         9.1460   -2.7980    1.1300 ha        1 MOL      0.136246
    140 H61         7.0450    0.8290    2.1610 ha        1 MOL      0.136246
    141 H62        11.3150   -1.5320    1.2520 ha        1 MOL      0.112751
    142 H63         9.3150    2.0430    2.2150 ha        1 MOL      0.112751
    143 H64        12.3880    0.5120    1.6980 ho        1 MOL      0.361187
    144 N13         4.6810   -3.9670    0.9340 n         1 MOL     -0.548879
    145 C48         3.5750   -4.7790    1.4080 c3        1 MOL      0.069598
    146 C49         2.4360   -5.2200    0.4720 c         1 MOL      0.284452
    147 O21         1.8690   -6.3290    0.6860 o         1 MOL     -0.482983
    148 C50         3.0540   -4.0260    2.6780 c3        1 MOL     -0.005153
    149 C51         4.0450   -4.0520    3.8110 c3        1 MOL     -0.202809
    150 C52         3.3450   -3.2230    4.8860 c         1 MOL      0.665875
    151 O22         2.7330   -3.7270    5.8580 o         1 MOL     -0.704248
    152 O23         3.4510   -1.9670    4.8030 o         1 MOL     -0.704248
    153 H65         5.5700   -4.3950    1.1240 hn        1 MOL      0.340846
    154 H66         4.0230   -5.7350    1.6850 h1        1 MOL      0.072433
    155 H67         2.1330   -4.5130    2.9930 hc        1 MOL      0.076112
    156 H68         2.9020   -2.9740    2.4270 hc        1 MOL      0.076112
    157 H69         4.9680   -3.5390    3.5110 hc        1 MOL      0.006287
    158 H70         4.2330   -5.0680    4.1420 hc        1 MOL      0.006287
    159 N14         2.0670   -4.3360   -0.4440 n         1 MOL     -0.083457
    160 C53         0.9670   -4.5620   -1.3750 c3        1 MOL     -0.104572
    161 C54         1.4200   -5.4550   -2.5190 c         1 MOL      0.533883
    162 O24         0.7590   -6.5340   -2.7540 o         1 MOL     -0.543433
    163 C55         0.3940   -3.2580   -1.8200 c3        1 MOL     -0.002772
    164 C56        -0.1350   -2.2930   -0.7970 c3        1 MOL      0.278416
    165 C57        -1.2130   -2.8310    0.1070 c         1 MOL      0.496205
    166 O25        -1.0270   -3.8930    0.7550 o         1 MOL     -0.599930
    167 O26        -2.2030   -2.1140    0.3440 o         1 MOL     -0.599930
    168 H71         2.5520   -3.4530   -0.5220 hn        1 MOL      0.127689
    169 H72         0.2640   -5.2510   -0.9000 h1        1 MOL      0.118342
    170 H73        -0.3080   -3.4340   -2.6330 hc        1 MOL     -0.019878
    171 H74         1.1580   -2.7360   -2.3890 hc        1 MOL     -0.019878
    172 H75        -0.4830   -1.3740   -1.2630 hc        1 MOL     -0.073104
    173 H76         0.7060   -1.9880   -0.1760 hc        1 MOL     -0.073104
    174 N15         2.6040   -5.1890   -3.0940 n         1 MOL     -0.376353
    175 C58         3.3120   -6.1180   -3.9920 c3        1 MOL     -0.204503
    176 H77         4.2510   -6.4230   -3.5310 h1        1 MOL      0.099352
    177 H78         2.6920   -6.9970   -4.1680 h1        1 MOL      0.099352
    178 H79         3.5170   -5.6210   -4.9400 h1        1 MOL      0.099352
    179 H80         3.1640   -4.4870   -2.6200 hn        1 MOL      0.278861
    180 Ca1        -4.4400   -1.7020    1.3700 Ca        1 MOL      1.735216
    181 O27        -3.5600   -4.1340    2.0680 oh        1 MOL     -0.869550
    182 H81        -2.7100   -4.2240    1.6540 ho        1 MOL      0.413465
    183 H82        -3.9350   -5.0110    2.0540 ho        1 MOL      0.413465
    184 O28        -3.2680   -1.9000    3.7730 oh        1 MOL     -0.869550
    185 H83        -2.9270   -1.1100    4.1940 ho        1 MOL      0.413465
    186 H84        -2.5890   -2.5660    3.9030 ho        1 MOL      0.413465
    187 O29        -6.0910    0.0850    2.8270 oh        1 MOL     -0.869550
    188 H85        -5.8450    0.8230    3.3830 ho        1 MOL      0.413465
    189 H86        -6.8440    0.3990    2.3240 ho        1 MOL      0.413465
@<TRIPOS>BOND
     1    1    2 1   
     2    1    4 1   
     3    1    5 1   
     4    1    6 1   
     5    2    3 2   
     6    2    7 1   
     7    7    8 1   
     8    7   15 1   
     9    8    9 1   
    10    8   11 1   
    11    8   16 1   
    12    9   10 2   
    13    9   19 1   
    14   11   12 1   
    15   11   17 1   
    16   11   18 1   
    17   12   13 1   
    18   12   14 1   
    19   19   20 1   
    20   19   27 1   
    21   20   21 1   
    22   20   23 1   
    23   20   28 1   
    24   21   22 2   
    25   21   38 1   
    26   23   24 1   
    27   23   25 1   
    28   23   29 1   
    29   24   26 1   
    30   24   30 1   
    31   24   31 1   
    32   25   32 1   
    33   25   33 1   
    34   25   34 1   
    35   26   35 1   
    36   26   36 1   
    37   26   37 1   
    38   38   39 1   
    39   38   46 1   
    40   39   40 1   
    41   39   42 1   
    42   39   47 1   
    43   40   41 2   
    44   40   50 1   
    45   42   43 1   
    46   42   48 1   
    47   42   49 1   
    48   43   44 1   
    49   43   45 1   
    50   50   51 1   
    51   50   54 1   
    52   51   52 1   
    53   51   55 1   
    54   51   56 1   
    55   52   53 2   
    56   52   57 1   
    57   57   58 1   
    58   57   65 1   
    59   58   59 1   
    60   58   61 1   
    61   58   66 1   
    62   59   60 2   
    63   59   69 1   
    64   61   62 1   
    65   61   67 1   
    66   61   68 1   
    67   62   63 1   
    68   62   64 1   
    69   69   70 1   
    70   69   73 1   
    71   70   71 1   
    72   70   74 1   
    73   70   75 1   
    74   71   72 2   
    75   71   76 1   
    76   76   77 1   
    77   76   85 1   
    78   77   78 1   
    79   77   80 1   
    80   77   86 1   
    81   78   79 2   
    82   78   93 1   
    83   80   81 1   
    84   80   87 1   
    85   80   88 1   
    86   81   82 1   
    87   81   89 1   
    88   81   90 1   
    89   82   83 1   
    90   82   84 2   
    91   83   91 1   
    92   83   92 1   
    93   93   94 1   
    94   93  100 1   
    95   94   95 1   
    96   94   97 1   
    97   94  101 1   
    98   95   96 2   
    99   95  109 1   
   100   97   98 1   
   101   97   99 1   
   102   97  102 1   
   103   98  103 1   
   104   98  104 1   
   105   98  105 1   
   106   99  106 1   
   107   99  107 1   
   108   99  108 1   
   109  109  110 1   
   110  109  117 1   
   111  110  111 1   
   112  110  113 1   
   113  110  118 1   
   114  111  112 2   
   115  111  123 1   
   116  113  114 1   
   117  113  119 1   
   118  113  120 1   
   119  114  115 1   
   120  114  116 2   
   121  115  121 1   
   122  115  122 1   
   123  123  124 1   
   124  123  135 1   
   125  124  125 1   
   126  124  127 1   
   127  124  136 1   
   128  125  126 2   
   129  125  144 1   
   130  127  128 1   
   131  127  137 1   
   132  127  138 1   
   133  128  129 ar  
   134  128  130 ar  
   135  129  131 ar  
   136  129  139 1   
   137  130  132 ar  
   138  130  140 1   
   139  131  133 ar  
   140  131  141 1   
   141  132  133 ar  
   142  132  142 1   
   143  133  134 1   
   144  134  143 1   
   145  144  145 1   
   146  144  153 1   
   147  145  146 1   
   148  145  148 1   
   149  145  154 1   
   150  146  147 2   
   151  146  159 1   
   152  148  149 1   
   153  148  155 1   
   154  148  156 1   
   155  149  150 1   
   156  149  157 1   
   157  149  158 1   
   158  150  151 1   
   159  150  152 1   
   160  159  160 1   
   161  159  168 1   
   162  160  161 1   
   163  160  163 1   
   164  160  169 1   
   165  161  162 2   
   166  161  174 1   
   167  163  164 1   
   168  163  170 1   
   169  163  171 1   
   170  164  165 1   
   171  164  172 1   
   172  164  173 1   
   173  165  166 1   
   174  165  167 1   
   175  174  175 1   
   176  174  179 1   
   177  175  176 1   
   178  175  177 1   
   179  175  178 1   
   180  181  182 1   
   181  181  183 1   
   182  184  185 1   
   183  184  186 1   
   184  187  188 1   
   185  187  189 1   
@<TRIPOS>SUBSTRUCTURE
     1 MOL         1 TEMP              0 ****  ****    0 ROOT
