@<TRIPOS>MOLECULE
MOL
  186   183     1     0     0
SMALL
resp


@<TRIPOS>ATOM
      1 C1        -12.6650    3.6590    4.2730 c3        1 MOL     -0.301432
      2 C2        -12.5760    2.6770    2.9850 c         1 MOL      0.545653
      3 O1        -12.8930    1.5150    3.0190 o         1 MOL     -0.579047
      4 H1        -12.1350    4.5870    4.0590 hc        1 MOL      0.078837
      5 H2        -13.7100    3.8810    4.4890 hc        1 MOL      0.078837
      6 H3        -12.2110    3.1700    5.1350 hc        1 MOL      0.078837
      7 N1        -12.2250    3.1330    1.8050 n         1 MOL      0.024748
      8 C3        -11.9210    2.3950    0.5740 c3        1 MOL     -0.984025
      9 C4        -10.6660    1.5710    0.6930 c         1 MOL      0.732455
     10 O2         -9.6460    2.1080    1.2130 o         1 MOL     -0.703129
     11 C5        -11.8630    3.2290   -0.7160 c3        1 MOL      0.631572
     12 C6        -11.0670    4.6140   -0.6030 c         1 MOL      0.600449
     13 O3        -10.6930    4.9560    0.5260 o         1 MOL     -0.698366
     14 O4        -11.0290    5.3750   -1.5480 o         1 MOL     -0.698366
     15 H4        -12.0180    4.1140    1.7140 hn        1 MOL      0.088527
     16 H5        -12.7800    1.7390    0.4510 h1        1 MOL      0.236484
     17 H6        -12.8760    3.4490   -1.0300 hc        1 MOL     -0.098584
     18 H7        -11.3670    2.5690   -1.4340 hc        1 MOL     -0.098584
     19 N2        -10.6510    0.3350    0.1170 n         1 MOL     -0.027759
     20 C7         -9.6730   -0.7560    0.2540 c3        1 MOL     -0.426543
     21 C8         -8.2070   -0.4190   -0.1100 c         1 MOL      0.828996
     22 O5         -7.2700   -1.0730    0.3800 o         1 MOL     -0.590281
     23 C9        -10.1820   -2.0150   -0.5420 c3        1 MOL     -0.217157
     24 C10        -9.3180   -3.2450   -0.1230 c3        1 MOL      0.273065
     25 C11        -9.7510   -4.5580   -0.7270 c3        1 MOL     -0.211640
     26 C12        -8.8360   -5.6670   -0.3030 c3        1 MOL      0.440301
     27 N3         -9.3480   -6.9970   -0.5140 n4        1 MOL     -0.462297
     28 H8        -11.5010    0.0540   -0.3390 hn        1 MOL      0.167963
     29 H9         -9.7480   -0.9910    1.3120 h1        1 MOL      0.164705
     30 H10       -10.2470   -1.8090   -1.6070 hc        1 MOL      0.103289
     31 H11       -11.1410   -2.2500   -0.0960 hc        1 MOL      0.103289
     32 H12        -9.4640   -3.3910    0.9470 hc        1 MOL     -0.032600
     33 H13        -8.2740   -3.1720   -0.4350 hc        1 MOL     -0.032600
     34 H14        -9.7050   -4.5510   -1.8140 hc        1 MOL      0.041549
     35 H15       -10.7500   -4.6670   -0.3010 hc        1 MOL      0.041549
     36 H16        -8.6810   -5.6310    0.7810 hx        1 MOL     -0.040146
     37 H17        -7.8640   -5.6310   -0.7810 hx        1 MOL     -0.040146
     38 H18        -9.2560   -7.1520   -1.5010 hn        1 MOL      0.311400
     39 H19        -8.7380   -7.6180   -0.0130 hn        1 MOL      0.311400
     40 H20       -10.2630   -7.1600   -0.1090 hn        1 MOL      0.311400
     41 N4         -7.8890    0.6780   -0.8990 n         1 MOL     -0.623987
     42 C13        -6.5670    1.1870   -1.1340 c3        1 MOL      0.162808
     43 C14        -5.9170    1.7910    0.0840 c         1 MOL      0.524560
     44 O6         -6.5150    2.5590    0.7510 o         1 MOL     -0.725162
     45 C15        -6.7070    2.1960   -2.3400 c3        1 MOL     -0.111276
     46 C16        -7.7110    3.4240   -2.2080 c         1 MOL      0.404269
     47 O7         -8.5320    3.5060   -1.2460 o         1 MOL     -0.556361
     48 O8         -7.6030    4.2260   -3.1360 o         1 MOL     -0.556361
     49 H21        -8.7140    1.0500   -1.3500 hn        1 MOL      0.356313
     50 H22        -5.9870    0.3960   -1.6000 h1        1 MOL     -0.067625
     51 H23        -6.8960    1.5920   -3.2350 hc        1 MOL      0.083598
     52 H24        -5.7060    2.6270   -2.3740 hc        1 MOL      0.083598
     53 N5         -4.7140    1.4800    0.4670 n         1 MOL     -0.194073
     54 C17        -3.7300    0.7150   -0.3710 c3        1 MOL     -0.377737
     55 C18        -3.8720   -0.8390   -0.2780 c         1 MOL      0.734701
     56 O9         -3.5710   -1.3730    0.7750 o         1 MOL     -0.592498
     57 H25        -4.3300    1.8990    1.3010 hn        1 MOL      0.258333
     58 H26        -2.7550    0.9360    0.0620 h1        1 MOL      0.149768
     59 H27        -3.7820    0.9570   -1.4310 h1        1 MOL      0.149768
     60 N6         -4.3080   -1.4890   -1.3380 n         1 MOL     -0.660961
     61 C19        -4.3900   -2.9230   -1.4530 c3        1 MOL      0.556949
     62 C20        -3.0790   -3.6390   -1.8660 c         1 MOL      0.286657
     63 O10        -2.3080   -3.0920   -2.7690 o         1 MOL     -0.428870
     64 C21        -5.4860   -3.2790   -2.4550 c3        1 MOL     -0.300834
     65 C22        -5.3630   -2.5820   -3.8170 c         1 MOL      0.547731
     66 O11        -4.8770   -3.2390   -4.7910 o         1 MOL     -0.598702
     67 O12        -5.4920   -1.3440   -3.9310 o         1 MOL     -0.598702
     68 H28        -4.5870   -0.9240   -2.1320 hn        1 MOL      0.339081
     69 H29        -4.6260   -3.3570   -0.4770 h1        1 MOL     -0.095306
     70 H30        -6.4110   -3.0080   -1.9530 hc        1 MOL      0.047879
     71 H31        -5.5900   -4.3570   -2.5250 hc        1 MOL      0.047879
     72 N7         -2.8700   -4.8620   -1.3590 n         1 MOL     -0.153035
     73 C23        -1.9360   -5.9150   -1.7750 c3        1 MOL     -0.360348
     74 C24        -0.6110   -5.8760   -1.1040 c         1 MOL      0.628782
     75 O13         0.2390   -6.7310   -1.3220 o         1 MOL     -0.557909
     76 H32        -3.6930   -5.1650   -0.8510 hn        1 MOL      0.186225
     77 H33        -1.7570   -5.8330   -2.8420 h1        1 MOL      0.163802
     78 H34        -2.4090   -6.8590   -1.4990 h1        1 MOL      0.163802
     79 N8         -0.3440   -4.9650   -0.0810 n         1 MOL     -0.314521
     80 C25         0.9280   -4.6690    0.6200 c3        1 MOL      0.024006
     81 C26         1.3540   -3.2050    0.4160 c         1 MOL      0.571489
     82 O14         0.5250   -2.3060    0.1840 o         1 MOL     -0.523544
     83 C27         0.9360   -5.0030    2.1770 c3        1 MOL      0.352797
     84 C28        -0.3040   -4.5280    2.9480 c3        1 MOL     -0.313546
     85 O15         0.9500   -6.3560    2.3010 oh        1 MOL     -0.557303
     86 H35        -1.0970   -4.3110    0.0810 hn        1 MOL      0.135260
     87 H36         1.7710   -5.2170    0.2080 h1        1 MOL      0.035917
     88 H37         1.7500   -4.4710    2.6620 h1        1 MOL     -0.036970
     89 H38         1.8540   -6.4710    2.6070 ho        1 MOL      0.349354
     90 H39        -0.2900   -3.4380    2.9000 hc        1 MOL      0.084717
     91 H40        -1.2120   -4.9520    2.5170 hc        1 MOL      0.084717
     92 H41        -0.3450   -4.9220    3.9640 hc        1 MOL      0.084717
     93 N9          2.6130   -2.8550    0.6390 n         1 MOL     -0.542544
     94 C29         3.1670   -1.4650    0.4840 c3        1 MOL      0.033916
     95 C30         4.5400   -1.5170   -0.1460 c         1 MOL      0.470427
     96 O16         4.9430   -0.6880   -0.9370 o         1 MOL     -0.519128
     97 C31         3.0880   -0.7730    1.8660 c3        1 MOL      0.054862
     98 C32         1.8790   -1.1060    2.7730 c3        1 MOL     -0.007134
     99 C33         3.2370    0.7510    1.7600 c3        1 MOL     -0.125674
    100 C34         1.8640   -0.4980    4.2210 c3        1 MOL     -0.430165
    101 H42         3.2750   -3.5770    0.9100 hn        1 MOL      0.266662
    102 H43         2.5940   -0.8500   -0.2090 h1        1 MOL      0.117588
    103 H44         3.9920   -1.1320    2.3620 hc        1 MOL     -0.002877
    104 H45         1.8040   -2.1850    2.9070 hc        1 MOL      0.073932
    105 H46         0.9120   -0.8230    2.3540 hc        1 MOL      0.073932
    106 H47         3.9940    1.0180    1.0150 hc        1 MOL      0.043986
    107 H48         2.3080    1.1390    1.3560 hc        1 MOL      0.043986
    108 H49         3.4830    1.2070    2.7180 hc        1 MOL      0.043986
    109 H50         0.9700   -0.8590    4.7140 hc        1 MOL      0.110674
    110 H51         2.7620   -0.6600    4.8270 hc        1 MOL      0.110674
    111 H52         1.7130    0.5700    4.0600 hc        1 MOL      0.110674
    112 N10         5.3990   -2.3970    0.3320 n         1 MOL     -0.265557
    113 C35         6.8070   -2.6000   -0.0860 c3        1 MOL     -0.047522
    114 C36         7.7610   -2.4390    1.1310 c         1 MOL      0.607499
    115 O17         7.5050   -2.7180    2.2760 o         1 MOL     -0.534841
    116 C37         7.0210   -3.9910   -0.7170 c3        1 MOL      0.334100
    117 C38         6.1610   -4.1480   -1.9310 c3        1 MOL     -0.211271
    118 O18         8.3800   -4.1640   -1.0280 oh        1 MOL     -0.617147
    119 H53         4.9800   -2.9830    1.0390 hn        1 MOL      0.179135
    120 H54         7.0230   -1.8470   -0.8370 h1        1 MOL      0.137530
    121 H55         6.6540   -4.7820   -0.0570 h1        1 MOL     -0.025888
    122 H56         8.3810   -5.0830   -1.3170 ho        1 MOL      0.388327
    123 H57         6.4190   -3.3650   -2.6570 hc        1 MOL      0.059860
    124 H58         6.4060   -5.0600   -2.4700 hc        1 MOL      0.059860
    125 H59         5.1120   -4.2340   -1.6380 hc        1 MOL      0.059860
    126 N11         8.9250   -1.7730    0.8730 n         1 MOL     -0.662175
    127 C39         9.9530   -1.4380    1.9140 c3        1 MOL      0.159092
    128 C40        10.4740   -0.0020    1.7430 c         1 MOL      0.572109
    129 O19        10.7410    0.5910    2.7770 o         1 MOL     -0.541691
    130 C41        11.1310   -2.4870    2.0200 c3        1 MOL      0.212053
    131 C42        11.9180   -2.1810    3.3060 c3        1 MOL     -0.461784
    132 O20        11.9930   -2.4510    0.8870 oh        1 MOL     -0.586240
    133 H60         9.1620   -1.4400   -0.0410 hn        1 MOL      0.313539
    134 H61         9.4740   -1.4290    2.8810 h1        1 MOL      0.105569
    135 H62        10.6780   -3.4780    1.9870 h1        1 MOL      0.063455
    136 H63        12.5430   -3.2480    0.9330 ho        1 MOL      0.381487
    137 H64        12.4390   -3.1130    3.5020 hc        1 MOL      0.123840
    138 H65        12.7240   -1.4460    3.2840 hc        1 MOL      0.123840
    139 H66        11.2450   -1.8900    4.1160 hc        1 MOL      0.123840
    140 N12        10.5670    0.5580    0.5170 n         1 MOL     -0.390334
    141 C43        10.8390    2.0200    0.3470 c3        1 MOL      0.021511
    142 C44         9.8500    2.7300   -0.4990 c         1 MOL      0.517118
    143 O21         9.4700    2.0450   -1.4520 o         1 MOL     -0.530973
    144 C45        12.2720    2.2370   -0.1020 c3        1 MOL     -0.087639
    145 C46        12.8360    1.8450   -1.5040 c3        1 MOL      0.002267
    146 C47        13.2470    0.4250   -1.8720 c3        1 MOL     -0.101624
    147 C48        14.0590   -0.2450   -0.7670 c3        1 MOL      0.222102
    148 N13        14.9840   -1.3040   -1.1960 n4        1 MOL     -0.341821
    149 H67        10.2190    0.1210   -0.3240 hn        1 MOL      0.277074
    150 H68        10.8160    2.4460    1.3450 h1        1 MOL      0.058453
    151 H69        12.8500    1.5730    0.5520 hc        1 MOL      0.036982
    152 H70        12.5040    3.2940    0.0290 hc        1 MOL      0.036982
    153 H71        13.6280    2.5650   -1.6810 hc        1 MOL      0.038372
    154 H72        12.0370    2.0990   -2.1970 hc        1 MOL      0.038372
    155 H73        13.8690    0.4830   -2.7640 hc        1 MOL      0.046662
    156 H74        12.3450   -0.1810   -1.9460 hc        1 MOL      0.046662
    157 H75        13.2860   -0.6020   -0.0940 hx        1 MOL      0.002522
    158 H76        14.6520    0.5390   -0.2800 hx        1 MOL      0.002522
    159 H77        14.5700   -2.1810   -1.4570 hn        1 MOL      0.261094
    160 H78        15.6520   -0.9150   -1.8520 hn        1 MOL      0.261094
    161 H79        15.5690   -1.5740   -0.4160 hn        1 MOL      0.261094
    162 N14         9.5610    3.9730   -0.2670 n         1 MOL     -0.443032
    163 C49         8.6540    4.7280   -1.2250 c3        1 MOL      0.243554
    164 C50         7.1710    4.2580   -1.1570 c         1 MOL      0.367783
    165 O22         6.6820    3.7450   -2.1510 o         1 MOL     -0.537434
    166 C51         8.7450    6.2090   -0.8860 c3        1 MOL     -0.165653
    167 C52         7.8780    7.1500   -1.7140 c3        1 MOL     -0.066817
    168 C53         8.0000    8.5390   -1.1580 c         1 MOL      0.640471
    169 O23         7.9210    8.7880    0.0570 o         1 MOL     -0.626446
    170 O24         8.1410    9.5110   -2.0330 o         1 MOL     -0.626446
    171 H80        10.0530    4.4540    0.4810 hn        1 MOL      0.287468
    172 H81         8.9150    4.4810   -2.2550 h1        1 MOL      0.042843
    173 H82         9.8060    6.3750   -1.0840 hc        1 MOL      0.038266
    174 H83         8.5030    6.3230    0.1730 hc        1 MOL      0.038266
    175 H84         6.8730    6.7430   -1.6600 hc        1 MOL      0.022581
    176 H85         8.1120    7.1680   -2.7800 hc        1 MOL      0.022581
    177 N15         6.4350    4.3670   -0.1000 n         1 MOL     -0.174956
    178 C54         6.6490    4.6500    1.2720 c3        1 MOL     -0.169775
    179 H86         7.2930    5.5240    1.3660 h1        1 MOL      0.078374
    180 H87         5.6930    4.8500    1.7560 h1        1 MOL      0.078374
    181 H88         7.1270    3.7940    1.7500 h1        1 MOL      0.078374
    182 H89         5.4950    4.0480   -0.3090 hn        1 MOL      0.236566
    183 Ca1        -8.2750    4.4170    1.1810 Ca        1 MOL      1.708048
    184 O25        -7.7540    2.8930    3.3940 oh        1 MOL     -0.841823
    185 H90        -8.1200    2.5800    4.2190 ho        1 MOL      0.432621
    186 H91        -7.2750    2.1390    3.0420 ho        1 MOL      0.432621
@<TRIPOS>BOND
     1    1    2 1   
     2    1    4 1   
     3    1    5 1   
     4    1    6 1   
     5    2    3 2   
     6    2    7 1   
     7    7    8 1   
     8    7   15 1   
     9    8    9 1   
    10    8   11 1   
    11    8   16 1   
    12    9   10 2   
    13    9   19 1   
    14   11   12 1   
    15   11   17 1   
    16   11   18 1   
    17   12   13 1   
    18   12   14 1   
    19   19   20 1   
    20   19   28 1   
    21   20   21 1   
    22   20   23 1   
    23   20   29 1   
    24   21   22 2   
    25   21   41 1   
    26   23   24 1   
    27   23   30 1   
    28   23   31 1   
    29   24   25 1   
    30   24   32 1   
    31   24   33 1   
    32   25   26 1   
    33   25   34 1   
    34   25   35 1   
    35   26   27 1   
    36   26   36 1   
    37   26   37 1   
    38   27   38 1   
    39   27   39 1   
    40   27   40 1   
    41   41   42 1   
    42   41   49 1   
    43   42   43 1   
    44   42   45 1   
    45   42   50 1   
    46   43   44 2   
    47   43   53 1   
    48   45   46 1   
    49   45   51 1   
    50   45   52 1   
    51   46   47 1   
    52   46   48 1   
    53   53   54 1   
    54   53   57 1   
    55   54   55 1   
    56   54   58 1   
    57   54   59 1   
    58   55   56 2   
    59   55   60 1   
    60   60   61 1   
    61   60   68 1   
    62   61   62 1   
    63   61   64 1   
    64   61   69 1   
    65   62   63 2   
    66   62   72 1   
    67   64   65 1   
    68   64   70 1   
    69   64   71 1   
    70   65   66 1   
    71   65   67 1   
    72   72   73 1   
    73   72   76 1   
    74   73   74 1   
    75   73   77 1   
    76   73   78 1   
    77   74   75 2   
    78   74   79 1   
    79   79   80 1   
    80   79   86 1   
    81   80   81 1   
    82   80   83 1   
    83   80   87 1   
    84   81   82 2   
    85   81   93 1   
    86   83   84 1   
    87   83   85 1   
    88   83   88 1   
    89   84   90 1   
    90   84   91 1   
    91   84   92 1   
    92   85   89 1   
    93   93   94 1   
    94   93  101 1   
    95   94   95 1   
    96   94   97 1   
    97   94  102 1   
    98   95   96 2   
    99   95  112 1   
   100   97   98 1   
   101   97   99 1   
   102   97  103 1   
   103   98  100 1   
   104   98  104 1   
   105   98  105 1   
   106   99  106 1   
   107   99  107 1   
   108   99  108 1   
   109  100  109 1   
   110  100  110 1   
   111  100  111 1   
   112  112  113 1   
   113  112  119 1   
   114  113  114 1   
   115  113  116 1   
   116  113  120 1   
   117  114  115 2   
   118  114  126 1   
   119  116  117 1   
   120  116  118 1   
   121  116  121 1   
   122  117  123 1   
   123  117  124 1   
   124  117  125 1   
   125  118  122 1   
   126  126  127 1   
   127  126  133 1   
   128  127  128 1   
   129  127  130 1   
   130  127  134 1   
   131  128  129 2   
   132  128  140 1   
   133  130  131 1   
   134  130  132 1   
   135  130  135 1   
   136  131  137 1   
   137  131  138 1   
   138  131  139 1   
   139  132  136 1   
   140  140  141 1   
   141  140  149 1   
   142  141  142 1   
   143  141  144 1   
   144  141  150 1   
   145  142  143 2   
   146  142  162 1   
   147  144  145 1   
   148  144  151 1   
   149  144  152 1   
   150  145  146 1   
   151  145  153 1   
   152  145  154 1   
   153  146  147 1   
   154  146  155 1   
   155  146  156 1   
   156  147  148 1   
   157  147  157 1   
   158  147  158 1   
   159  148  159 1   
   160  148  160 1   
   161  148  161 1   
   162  162  163 1   
   163  162  171 1   
   164  163  164 1   
   165  163  166 1   
   166  163  172 1   
   167  164  165 2   
   168  164  177 1   
   169  166  167 1   
   170  166  173 1   
   171  166  174 1   
   172  167  168 1   
   173  167  175 1   
   174  167  176 1   
   175  168  169 1   
   176  168  170 1   
   177  177  178 1   
   178  177  182 1   
   179  178  179 1   
   180  178  180 1   
   181  178  181 1   
   182  184  185 1   
   183  184  186 1   
@<TRIPOS>SUBSTRUCTURE
     1 MOL         1 TEMP              0 ****  ****    0 ROOT
