@<TRIPOS>MOLECULE
MOL
  181   177     1     0     0
SMALL
resp


@<TRIPOS>ATOM
      1 C1          0.8920    6.7720   -2.7710 c3        1 MOL     -0.429986
      2 C2          2.1930    6.3750   -1.9830 c         1 MOL      0.673381
      3 O1          2.2440    6.8340   -0.8330 o         1 MOL     -0.553181
      4 H1          1.0520    6.6140   -3.8380 hc        1 MOL      0.105382
      5 H2          0.0590    6.1550   -2.4340 hc        1 MOL      0.105382
      6 H3          0.6620    7.8220   -2.5910 hc        1 MOL      0.105382
      7 N1          3.1800    5.7010   -2.6080 n         1 MOL     -0.599766
      8 C3          4.4680    5.3850   -1.9530 c3        1 MOL      0.340691
      9 C4          4.3830    4.2790   -0.8640 c         1 MOL      0.461914
     10 O2          3.3890    3.5430   -0.7240 o         1 MOL     -0.540192
     11 C5          5.3780    5.2200   -3.2090 c3        1 MOL     -0.312216
     12 C6          6.8970    4.9650   -2.9420 c         1 MOL      0.701869
     13 O3          7.5420    5.6430   -2.0430 o         1 MOL     -0.719124
     14 O4          7.5020    4.0180   -3.5020 o         1 MOL     -0.719124
     15 H4          2.9500    5.2350   -3.4690 hn        1 MOL      0.305159
     16 H5          4.7690    6.2520   -1.3660 h1        1 MOL      0.010400
     17 H6          5.3500    6.1640   -3.7390 hc        1 MOL      0.044417
     18 H7          4.9750    4.3860   -3.7880 hc        1 MOL      0.044417
     19 N2          5.4050    4.1240    0.0120 n         1 MOL     -0.402137
     20 C7          5.4690    3.1800    1.1450 c3        1 MOL      0.218586
     21 C8          4.5060    3.5910    2.3360 c         1 MOL      0.508434
     22 O5          4.1490    4.7500    2.3630 o         1 MOL     -0.531928
     23 C9          6.9380    3.3180    1.6550 c3        1 MOL     -0.405902
     24 H8          6.0790    4.8680   -0.0130 hn        1 MOL      0.237000
     25 H9          5.2420    2.1760    0.8050 h1        1 MOL      0.112742
     26 H10         7.6820    3.0440    0.9130 hc        1 MOL      0.107603
     27 H11         7.0820    4.3900    1.8230 hc        1 MOL      0.107603
     28 H12         7.0760    2.8150    2.6140 hc        1 MOL      0.107603
     29 N3          4.1510    2.7600    3.3290 n         1 MOL     -0.372525
     30 C10         4.6510    1.4080    3.6980 c3        1 MOL      0.016169
     31 C11         4.5360    0.3800    2.5230 c         1 MOL      0.199509
     32 O6          3.7180    0.5090    1.6520 o         1 MOL     -0.398160
     33 C12         3.8360    1.0120    4.9290 c3        1 MOL     -0.332122
     34 C13         2.3580    1.1740    4.6910 c         1 MOL      0.792790
     35 O7          1.6940    2.1610    5.0790 o         1 MOL     -0.675547
     36 O8          1.8020    0.2440    4.0880 o         1 MOL     -0.675547
     37 H13         3.5150    3.1640    4.0030 hn        1 MOL      0.232484
     38 H14         5.7060    1.5980    3.8880 h1        1 MOL      0.091305
     39 H15         4.2260    1.5970    5.7590 hc        1 MOL      0.089820
     40 H16         4.0330   -0.0530    5.0850 hc        1 MOL      0.089820
     41 N4          5.3360   -0.7200    2.5850 n         1 MOL     -0.230129
     42 C14         5.4300   -1.7810    1.5800 c3        1 MOL     -0.089356
     43 C15         5.7960   -1.3310    0.1270 c         1 MOL      0.845201
     44 O9          6.0360   -0.1630   -0.0820 o         1 MOL     -0.562431
     45 H17         6.0680   -0.6350    3.2820 hn        1 MOL      0.227750
     46 H18         4.4820   -2.3420    1.5460 h1        1 MOL      0.086509
     47 H19         6.1830   -2.4870    1.9290 h1        1 MOL      0.086509
     48 N5          5.8710   -2.2230   -0.9010 n         1 MOL     -0.796221
     49 C16         6.2650   -3.6470   -0.8400 c3        1 MOL      0.076554
     50 C17         5.5700   -4.4740   -1.9420 c         1 MOL      0.406949
     51 O10         5.6060   -5.7450   -1.9670 o         1 MOL     -0.507035
     52 C18         7.8220   -3.7390   -1.1030 c3        1 MOL     -0.233792
     53 C19         8.5730   -2.9070   -0.0690 c         1 MOL      0.493768
     54 N6          9.1750   -1.8290   -0.4570 n         1 MOL     -0.617607
     55 O11         8.4800   -3.0020    1.1530 o         1 MOL     -0.510650
     56 H20         6.0470   -1.7550   -1.7770 hn        1 MOL      0.366947
     57 H21         6.0230   -4.0570    0.1400 h1        1 MOL      0.099258
     58 H22         8.0640   -3.5440   -2.1470 hc        1 MOL      0.094742
     59 H23         8.0760   -4.7870   -0.9340 hc        1 MOL      0.094742
     60 H24         9.3270   -1.6730   -1.4450 hn        1 MOL      0.335110
     61 H25         9.8200   -1.3930    0.1830 hn        1 MOL      0.335110
     62 N7          4.9110   -3.8070   -2.8950 n         1 MOL     -0.180258
     63 C20         3.9910   -4.5340   -3.8450 c3        1 MOL     -0.290256
     64 C21         2.6290   -5.0280   -3.2860 c         1 MOL      0.738374
     65 O12         2.0520   -5.9770   -3.7380 o         1 MOL     -0.551091
     66 H26         5.0850   -2.8060   -2.9350 hn        1 MOL      0.253445
     67 H27         4.4990   -5.4480   -4.1760 h1        1 MOL      0.125411
     68 H28         3.7860   -3.9080   -4.7140 h1        1 MOL      0.125411
     69 N8          2.1470   -4.3090   -2.2380 n         1 MOL     -0.644347
     70 C22         1.0430   -4.7440   -1.3770 c3        1 MOL      0.199481
     71 C23        -0.0370   -3.7480   -1.0820 c         1 MOL      0.543938
     72 O13         0.0870   -2.5430   -1.3630 o         1 MOL     -0.537169
     73 C24         1.5620   -5.3390   -0.0880 c3        1 MOL      0.297788
     74 C25         2.0730   -6.7810   -0.2560 c3        1 MOL     -0.579966
     75 O14         2.7260   -4.6480    0.3200 oh        1 MOL     -0.528007
     76 H29         2.7250   -3.5680   -1.8800 hn        1 MOL      0.309737
     77 H30         0.5390   -5.5420   -1.9240 h1        1 MOL      0.056881
     78 H31         0.7560   -5.2600    0.6410 h1        1 MOL      0.005074
     79 H32         2.9190   -5.0240    1.1820 ho        1 MOL      0.371891
     80 H33         3.0330   -6.8630   -0.7590 hc        1 MOL      0.153268
     81 H34         2.2130   -7.2080    0.7370 hc        1 MOL      0.153268
     82 H35         1.4180   -7.3790   -0.8820 hc        1 MOL      0.153268
     83 N9         -1.1770   -4.2460   -0.6030 n         1 MOL     -0.468982
     84 C26        -2.4660   -3.5360   -0.5390 c3        1 MOL     -0.070923
     85 C27        -2.8770   -3.3760    0.9050 c         1 MOL      0.567580
     86 O15        -3.3010   -4.3730    1.4860 o         1 MOL     -0.590849
     87 C28        -3.5640   -4.1730   -1.4340 c3        1 MOL      0.180142
     88 C29        -4.6910   -3.1190   -1.5530 c3        1 MOL      0.172086
     89 C30        -3.0520   -4.6100   -2.8160 c3        1 MOL     -0.215344
     90 C31        -5.9310   -3.6810   -2.3420 c3        1 MOL     -0.257274
     91 H36        -1.2100   -5.2480   -0.5380 hn        1 MOL      0.269086
     92 H37        -2.3980   -2.5560   -1.0150 h1        1 MOL      0.173549
     93 H38        -4.0260   -5.0810   -1.0360 hc        1 MOL     -0.009442
     94 H39        -4.4100   -2.1450   -1.9700 hc        1 MOL     -0.052752
     95 H40        -5.0090   -2.8180   -0.5520 hc        1 MOL     -0.052752
     96 H41        -2.2470   -5.3410   -2.8070 hc        1 MOL      0.039641
     97 H42        -3.8720   -5.0650   -3.3780 hc        1 MOL      0.039641
     98 H43        -2.7440   -3.7390   -3.3970 hc        1 MOL      0.039641
     99 H44        -6.3180   -4.6190   -1.9390 hc        1 MOL      0.048892
    100 H45        -6.6680   -2.8750   -2.2620 hc        1 MOL      0.048892
    101 H46        -5.6780   -3.8060   -3.3900 hc        1 MOL      0.048892
    102 N10        -2.9410   -2.1480    1.4000 n         1 MOL     -0.332663
    103 C32        -3.7030   -1.8670    2.6300 c3        1 MOL      0.177764
    104 C33        -5.1480   -1.4120    2.3700 c         1 MOL      0.399110
    105 O16        -6.0200   -1.5590    3.1630 o         1 MOL     -0.532270
    106 C34        -2.9030   -0.8910    3.4930 c3        1 MOL     -0.451173
    107 C35        -1.6040   -1.4570    3.8910 c         1 MOL      0.770757
    108 O17        -1.5630   -2.1620    4.9670 o         1 MOL     -0.700436
    109 O18        -0.5900   -1.2500    3.2180 o         1 MOL     -0.700436
    110 H47        -2.7050   -1.3450    0.8300 hn        1 MOL      0.059415
    111 H48        -3.8290   -2.7550    3.2450 h1        1 MOL      0.098753
    112 H49        -3.4750   -0.6420    4.3840 hc        1 MOL      0.114458
    113 H50        -2.7550    0.0650    3.0040 hc        1 MOL      0.114458
    114 N11        -5.4370   -0.8460    1.1590 n         1 MOL     -0.241757
    115 C36        -6.6290    0.0450    0.9700 c3        1 MOL      0.392732
    116 C37        -6.2370    1.3210    0.1970 c         1 MOL      0.163853
    117 O19        -6.6380    1.5570   -0.9400 o         1 MOL     -0.458653
    118 C38        -7.7530   -0.7950    0.3460 c3        1 MOL     -0.296683
    119 C39        -9.2370   -0.3110    0.4200 ca        1 MOL      0.144950
    120 C40        -9.9160    0.0370   -0.7440 ca        1 MOL     -0.178416
    121 C41        -9.8600   -0.1140    1.6720 ca        1 MOL     -0.178416
    122 C42       -11.2480    0.5600   -0.6290 ca        1 MOL     -0.098573
    123 C43       -11.2410    0.2160    1.7680 ca        1 MOL     -0.098573
    124 C44       -11.9050    0.6070    0.6110 ca        1 MOL     -0.157455
    125 H51        -4.6320   -0.5320    0.6240 hn        1 MOL      0.159609
    126 H52        -6.8670    0.3810    1.9760 h1        1 MOL     -0.022238
    127 H53        -7.7050   -1.8330    0.6680 hc        1 MOL      0.094039
    128 H54        -7.6740   -0.8280   -0.7440 hc        1 MOL      0.094039
    129 H55        -9.4050    0.0000   -1.7010 ha        1 MOL      0.122574
    130 H56        -9.3260   -0.3850    2.5700 ha        1 MOL      0.122574
    131 H57       -11.8520    0.8380   -1.4830 ha        1 MOL      0.095380
    132 H58       -11.8550    0.1790    2.6470 ha        1 MOL      0.095380
    133 H59       -12.9310    0.8940    0.7690 ha        1 MOL      0.105656
    134 N12        -5.4550    2.1990    0.8390 n         1 MOL      0.070707
    135 C45        -4.8810    3.4220    0.3420 c3        1 MOL     -0.002054
    136 C46        -4.4080    3.5150   -1.1040 c         1 MOL      0.231258
    137 O20        -4.5840    4.5200   -1.7420 o         1 MOL     -0.479070
    138 C47        -3.7160    3.6730    1.1560 c3        1 MOL      0.028247
    139 C48        -4.2150    3.3050    2.5120 c3        1 MOL     -0.086583
    140 C49        -5.1600    2.1220    2.2840 c3        1 MOL     -0.178935
    141 H60        -5.5110    4.2840    0.5840 h1        1 MOL      0.066647
    142 H61        -2.8920    2.9910    0.9230 hc        1 MOL      0.030427
    143 H62        -3.5120    4.7450    1.1040 hc        1 MOL      0.030427
    144 H63        -3.2970    3.0530    3.0510 hc        1 MOL      0.040825
    145 H64        -4.6920    4.1910    2.9430 hc        1 MOL      0.040825
    146 H65        -4.5610    1.2070    2.2900 h1        1 MOL      0.098277
    147 H66        -6.0800    2.1400    2.8690 h1        1 MOL      0.098277
    148 N13        -3.7950    2.4930   -1.6950 n         1 MOL      0.029618
    149 C50        -3.3880    2.3180   -3.0340 c3        1 MOL     -0.398899
    150 C51        -4.5200    2.4020   -4.0890 c         1 MOL      0.611693
    151 O21        -4.4620    3.1090   -5.0540 o         1 MOL     -0.546083
    152 C52        -2.7670    0.9180   -3.1650 c3        1 MOL      0.168046
    153 C53        -1.5680    0.5760   -2.1970 c3        1 MOL     -0.240787
    154 C54        -2.0230    0.2510   -0.7700 c         1 MOL      0.645525
    155 O22        -1.1350    0.0020    0.0890 o         1 MOL     -0.624947
    156 O23        -3.2530    0.0920   -0.4280 o         1 MOL     -0.624947
    157 H67        -3.6870    1.6540   -1.1510 hn        1 MOL      0.157009
    158 H68        -2.5820    3.0090   -3.2610 h1        1 MOL      0.137893
    159 H69        -2.3450    0.8880   -4.1720 hc        1 MOL     -0.023473
    160 H70        -3.5500    0.1660   -3.1890 hc        1 MOL     -0.023473
    161 H71        -0.8830    1.4120   -2.0710 hc        1 MOL      0.064079
    162 H72        -1.1340   -0.3830   -2.4890 hc        1 MOL      0.064079
    163 N14        -5.5600    1.5620   -3.8530 n         1 MOL     -0.197250
    164 C55        -6.7400    1.5020   -4.6480 c3        1 MOL     -0.353974
    165 H73        -6.4730    1.2500   -5.6740 h1        1 MOL      0.119330
    166 H74        -7.4100    0.7410   -4.2490 h1        1 MOL      0.119330
    167 H75        -7.2400    2.4720   -4.6310 h1        1 MOL      0.119330
    168 H76        -5.5660    1.1080   -2.9490 hn        1 MOL      0.240713
    169 Ca1         0.9170    0.0260    1.7560 Ca        1 MOL      1.752354
    170 O24         2.0880   -0.9470   -0.3860 oh        1 MOL     -0.888321
    171 H77         2.5270   -0.2120   -0.8210 ho        1 MOL      0.407611
    172 H78         1.5340   -1.3340   -1.0800 ho        1 MOL      0.407611
    173 O25         2.1000   -2.3660    2.3740 oh        1 MOL     -0.888321
    174 H79         2.5220   -3.0380    1.8340 ho        1 MOL      0.407611
    175 H80         1.5860   -2.8590    3.0090 ho        1 MOL      0.407611
    176 O26         1.2470    2.0510    0.1880 oh        1 MOL     -0.888321
    177 H81         0.4650    2.3230   -0.2880 ho        1 MOL      0.407611
    178 H82         1.8580    2.7720    0.0800 ho        1 MOL      0.407611
    179 O27        -0.0620    2.0550    3.0590 oh        1 MOL     -0.888321
    180 H83         0.5770    2.2940    3.7380 ho        1 MOL      0.407611
    181 H84        -0.6890    2.7750    3.0630 ho        1 MOL      0.407611
@<TRIPOS>BOND
     1    1    2 1   
     2    1    4 1   
     3    1    5 1   
     4    1    6 1   
     5    2    3 2   
     6    2    7 1   
     7    7    8 1   
     8    7   15 1   
     9    8    9 1   
    10    8   11 1   
    11    8   16 1   
    12    9   10 2   
    13    9   19 1   
    14   11   12 1   
    15   11   17 1   
    16   11   18 1   
    17   12   13 1   
    18   12   14 1   
    19   19   20 1   
    20   19   24 1   
    21   20   21 1   
    22   20   23 1   
    23   20   25 1   
    24   21   22 2   
    25   21   29 1   
    26   23   26 1   
    27   23   27 1   
    28   23   28 1   
    29   29   30 1   
    30   29   37 1   
    31   30   31 1   
    32   30   33 1   
    33   30   38 1   
    34   31   32 2   
    35   31   41 1   
    36   33   34 1   
    37   33   39 1   
    38   33   40 1   
    39   34   35 1   
    40   34   36 1   
    41   41   42 1   
    42   41   45 1   
    43   42   43 1   
    44   42   46 1   
    45   42   47 1   
    46   43   44 2   
    47   43   48 1   
    48   48   49 1   
    49   48   56 1   
    50   49   50 1   
    51   49   52 1   
    52   49   57 1   
    53   50   51 2   
    54   50   62 1   
    55   52   53 1   
    56   52   58 1   
    57   52   59 1   
    58   53   54 1   
    59   53   55 2   
    60   54   60 1   
    61   54   61 1   
    62   62   63 1   
    63   62   66 1   
    64   63   64 1   
    65   63   67 1   
    66   63   68 1   
    67   64   65 2   
    68   64   69 1   
    69   69   70 1   
    70   69   76 1   
    71   70   71 1   
    72   70   73 1   
    73   70   77 1   
    74   71   72 2   
    75   71   83 1   
    76   73   74 1   
    77   73   75 1   
    78   73   78 1   
    79   74   80 1   
    80   74   81 1   
    81   74   82 1   
    82   75   79 1   
    83   83   84 1   
    84   83   91 1   
    85   84   85 1   
    86   84   87 1   
    87   84   92 1   
    88   85   86 2   
    89   85  102 1   
    90   87   88 1   
    91   87   89 1   
    92   87   93 1   
    93   88   90 1   
    94   88   94 1   
    95   88   95 1   
    96   89   96 1   
    97   89   97 1   
    98   89   98 1   
    99   90   99 1   
   100   90  100 1   
   101   90  101 1   
   102  102  103 1   
   103  102  110 1   
   104  103  104 1   
   105  103  106 1   
   106  103  111 1   
   107  104  105 2   
   108  104  114 1   
   109  106  107 1   
   110  106  112 1   
   111  106  113 1   
   112  107  108 1   
   113  107  109 1   
   114  114  115 1   
   115  114  125 1   
   116  115  116 1   
   117  115  118 1   
   118  115  126 1   
   119  116  117 2   
   120  116  134 1   
   121  118  119 1   
   122  118  127 1   
   123  118  128 1   
   124  119  120 ar  
   125  119  121 ar  
   126  120  122 ar  
   127  120  129 1   
   128  121  123 ar  
   129  121  130 1   
   130  122  124 ar  
   131  122  131 1   
   132  123  124 ar  
   133  123  132 1   
   134  124  133 1   
   135  134  135 1   
   136  134  140 1   
   137  135  136 1   
   138  135  138 1   
   139  135  141 1   
   140  136  137 2   
   141  136  148 1   
   142  138  139 1   
   143  138  142 1   
   144  138  143 1   
   145  139  140 1   
   146  139  144 1   
   147  139  145 1   
   148  140  146 1   
   149  140  147 1   
   150  148  149 1   
   151  148  157 1   
   152  149  150 1   
   153  149  152 1   
   154  149  158 1   
   155  150  151 2   
   156  150  163 1   
   157  152  153 1   
   158  152  159 1   
   159  152  160 1   
   160  153  154 1   
   161  153  161 1   
   162  153  162 1   
   163  154  155 1   
   164  154  156 1   
   165  163  164 1   
   166  163  168 1   
   167  164  165 1   
   168  164  166 1   
   169  164  167 1   
   170  170  171 1   
   171  170  172 1   
   172  173  174 1   
   173  173  175 1   
   174  176  177 1   
   175  176  178 1   
   176  179  180 1   
   177  179  181 1   
@<TRIPOS>SUBSTRUCTURE
     1 MOL         1 TEMP              0 ****  ****    0 ROOT
