@<TRIPOS>MOLECULE
MOL
  175   173     1     0     0
SMALL
resp


@<TRIPOS>ATOM
      1 C1         -6.6290    7.7480    2.4020 c3        1 MOL     -0.417775
      2 C2         -7.3570    7.1230    1.1620 c         1 MOL      0.779454
      3 O1         -7.4410    7.7530    0.1500 o         1 MOL     -0.589019
      4 H1         -7.3050    7.7500    3.2570 hc        1 MOL      0.099692
      5 H2         -5.7450    7.1590    2.6400 hc        1 MOL      0.099692
      6 H3         -6.3340    8.7720    2.1720 hc        1 MOL      0.099692
      7 N1         -7.8210    5.8510    1.2370 n         1 MOL     -0.778431
      8 C3         -8.7010    5.1090    0.2660 c3        1 MOL      0.508450
      9 C4         -7.9260    4.2450   -0.7240 c         1 MOL      0.376566
     10 O2         -8.5180    3.3170   -1.3120 o         1 MOL     -0.505809
     11 C5         -9.8930    4.3490    0.9790 c3        1 MOL     -0.422645
     12 C6        -11.0990    4.1450    0.1310 c         1 MOL      0.755430
     13 O3        -11.2730    4.6600   -1.0030 o         1 MOL     -0.726164
     14 O4        -12.0630    3.5700    0.6780 o         1 MOL     -0.726164
     15 H4         -7.5910    5.3340    2.0710 hn        1 MOL      0.317504
     16 H5         -9.0690    5.9170   -0.3610 h1        1 MOL      0.005597
     17 H6        -10.2190    4.8570    1.8920 hc        1 MOL      0.080420
     18 H7         -9.5440    3.3950    1.3880 hc        1 MOL      0.080420
     19 N2         -6.5940    4.3790   -0.7550 n         1 MOL     -0.504664
     20 C7         -5.6870    3.3720   -1.2550 c3        1 MOL      0.385741
     21 C8         -5.0050    2.5340   -0.1210 c         1 MOL      0.433381
     22 O5         -4.5700    3.1350    0.8880 o         1 MOL     -0.561831
     23 C9         -4.6250    3.9900   -2.2140 c3        1 MOL     -0.240681
     24 H8         -6.1550    5.1390   -0.2500 hn        1 MOL      0.276831
     25 H9         -6.2590    2.6670   -1.8600 h1        1 MOL      0.007046
     26 H10        -4.2630    4.9210   -1.7870 hc        1 MOL      0.056987
     27 H11        -3.7990    3.3260   -2.4570 hc        1 MOL      0.056987
     28 H12        -5.0320    4.2250   -3.2020 hc        1 MOL      0.056987
     29 N3         -4.8210    1.2310   -0.2400 n         1 MOL     -0.369266
     30 C10        -5.2440    0.3180   -1.3140 c3        1 MOL     -0.101786
     31 C11        -5.6080   -1.1030   -0.7240 c         1 MOL      0.574481
     32 O6         -5.0070   -1.5370    0.2150 o         1 MOL     -0.531586
     33 C12        -4.1110    0.2280   -2.4000 c3        1 MOL      0.014427
     34 C13        -2.7900   -0.2740   -1.8010 c         1 MOL      0.522832
     35 O7         -2.3820   -1.3990   -2.1760 o         1 MOL     -0.675967
     36 O8         -2.1640    0.3700   -0.9650 o         1 MOL     -0.675967
     37 H13        -4.2620    0.7680    0.4550 hn        1 MOL      0.290815
     38 H14        -6.1210    0.6380   -1.8820 h1        1 MOL      0.067358
     39 H15        -4.1000    1.1430   -2.9750 hc        1 MOL      0.001954
     40 H16        -4.4800   -0.5520   -3.0780 hc        1 MOL      0.001954
     41 N4         -6.5190   -1.7960   -1.3720 n         1 MOL     -0.452783
     42 C14        -6.8890   -3.2040   -1.0480 c3        1 MOL      0.054546
     43 C15        -6.6220   -4.2690   -2.1830 c         1 MOL      0.486481
     44 O9         -7.5810   -4.6750   -2.8490 o         1 MOL     -0.539116
     45 H17        -6.9500   -1.4010   -2.2000 hn        1 MOL      0.310077
     46 H18        -7.9660   -3.1750   -0.9120 h1        1 MOL      0.071457
     47 H19        -6.6140   -3.4560   -0.0300 h1        1 MOL      0.071457
     48 N5         -5.4350   -4.9020   -2.2520 n         1 MOL     -0.467035
     49 C16        -4.1730   -4.5530   -1.4670 c3        1 MOL      0.049180
     50 C17        -4.0590   -5.3090   -0.1410 c         1 MOL      0.523398
     51 O10        -4.4890   -6.4850   -0.0590 o         1 MOL     -0.545268
     52 C18        -2.9550   -4.7620   -2.4660 c3        1 MOL     -0.114397
     53 C19        -1.5610   -4.3900   -1.9130 c         1 MOL      0.592899
     54 N6         -0.5050   -4.7020   -2.6040 n         1 MOL     -0.712210
     55 O11        -1.4870   -3.7340   -0.8430 o         1 MOL     -0.591090
     56 H20        -5.2910   -5.5420   -3.0210 hn        1 MOL      0.304175
     57 H21        -4.2760   -3.4850   -1.2780 h1        1 MOL      0.094071
     58 H22        -3.1160   -4.2580   -3.4250 hc        1 MOL      0.047768
     59 H23        -3.0190   -5.8350   -2.6280 hc        1 MOL      0.047768
     60 H24        -0.4760   -5.3860   -3.3440 hn        1 MOL      0.351765
     61 H25         0.3990   -4.4730   -2.2110 hn        1 MOL      0.351765
     62 N7         -3.6300   -4.6350    0.9480 n         1 MOL     -0.300968
     63 C20        -3.3940   -5.2300    2.3040 c3        1 MOL     -0.119346
     64 C21        -1.9480   -5.5990    2.7130 c         1 MOL      0.463210
     65 O12        -1.7530   -6.3130    3.7380 o         1 MOL     -0.570757
     66 H26        -3.5520   -3.6380    0.8360 hn        1 MOL      0.216960
     67 H27        -4.0640   -6.0820    2.4590 h1        1 MOL      0.091991
     68 H28        -3.7120   -4.4180    2.9650 h1        1 MOL      0.091991
     69 N8         -1.0020   -5.1120    1.9470 n         1 MOL     -0.050539
     70 C22         0.3930   -5.1690    2.3600 c3        1 MOL     -0.094870
     71 C23         1.1290   -3.7870    2.2500 c         1 MOL      0.340334
     72 O13         0.6190   -2.7920    1.7350 o         1 MOL     -0.472405
     73 C24         1.0730   -6.1590    1.4380 c3        1 MOL      0.424662
     74 C25         0.4240   -7.5070    1.5370 c3        1 MOL     -0.542909
     75 O14         0.9760   -5.7520    0.1010 oh        1 MOL     -0.622831
     76 H29        -1.2360   -4.5050    1.1830 hn        1 MOL      0.120317
     77 H30         0.5610   -5.4750    3.3910 h1        1 MOL      0.067595
     78 H31         2.1290   -6.1020    1.6870 h1        1 MOL     -0.049022
     79 H32         1.6140   -5.0480   -0.0680 ho        1 MOL      0.452765
     80 H33        -0.5900   -7.4550    1.1460 hc        1 MOL      0.139549
     81 H34         0.9150   -8.2280    0.8730 hc        1 MOL      0.139549
     82 H35         0.3880   -7.8540    2.5710 hc        1 MOL      0.139549
     83 N9          2.3920   -3.7240    2.7060 n         1 MOL     -0.214636
     84 C26         3.3640   -2.6570    2.3280 c3        1 MOL     -0.142645
     85 C27         4.1410   -3.1090    1.0510 c         1 MOL      0.293823
     86 O15         4.7970   -4.1610    1.0360 o         1 MOL     -0.515418
     87 C28         4.2830   -2.3390    3.4960 c3        1 MOL      0.287470
     88 C29         5.0540   -1.0670    3.0790 c3        1 MOL      0.239579
     89 C30         3.5870   -2.2610    4.8270 c3        1 MOL     -0.376720
     90 C31         6.2390   -0.7280    4.0660 c3        1 MOL     -0.153407
     91 H36         2.6860   -4.5110    3.2640 hn        1 MOL      0.227916
     92 H37         2.8070   -1.7530    2.0600 h1        1 MOL      0.114700
     93 H38         5.0550   -3.1020    3.6200 hc        1 MOL     -0.029951
     94 H39         4.3630   -0.2200    3.0640 hc        1 MOL     -0.105728
     95 H40         5.4460   -1.1700    2.0680 hc        1 MOL     -0.105728
     96 H41         2.6330   -1.7330    4.7940 hc        1 MOL      0.081162
     97 H42         3.2680   -3.2290    5.2210 hc        1 MOL      0.081162
     98 H43         4.2690   -1.8200    5.5510 hc        1 MOL      0.081162
     99 H44         6.7250    0.2170    3.8100 hc        1 MOL      0.022449
    100 H45         5.8780   -0.7010    5.0920 hc        1 MOL      0.022449
    101 H46         7.0300   -1.4830    4.1690 hc        1 MOL      0.022449
    102 N10         4.0400   -2.2680    0.0350 n         1 MOL     -0.122902
    103 C32         4.5200   -2.3760   -1.3740 c3        1 MOL      0.066770
    104 C33         5.3980   -1.1490   -1.8860 c         1 MOL      0.513376
    105 O16         5.8030   -1.2320   -3.0350 o         1 MOL     -0.531418
    106 C34         3.3830   -2.6230   -2.4340 c3        1 MOL     -0.020787
    107 C35         2.3140   -3.6140   -1.8700 c         1 MOL      0.582076
    108 O17         2.4040   -4.8010   -2.2530 o         1 MOL     -0.627410
    109 O18         1.3700   -3.1480   -1.1240 o         1 MOL     -0.627410
    110 H47         3.2850   -1.6020    0.1180 hn        1 MOL      0.107536
    111 H48         5.1240   -3.2750   -1.4150 h1        1 MOL      0.064594
    112 H49         3.8820   -3.0160   -3.3100 hc        1 MOL     -0.001809
    113 H50         2.9000   -1.6760   -2.6620 hc        1 MOL     -0.001809
    114 N11         5.7060   -0.1540   -1.0390 n         1 MOL     -0.562086
    115 C36         6.6250    0.9720   -1.5000 c3        1 MOL      0.350638
    116 C37         6.3630    2.2240   -0.6330 c         1 MOL      0.316862
    117 O19         6.3200    2.1820    0.6080 o         1 MOL     -0.506893
    118 C38         8.0780    0.5380   -1.4030 c3        1 MOL     -0.418806
    119 C39         9.0880    1.6410   -1.7560 ca        1 MOL      0.186420
    120 C40         9.6720    2.5200   -0.7540 ca        1 MOL     -0.190381
    121 C41         9.6150    1.7230   -3.0790 ca        1 MOL     -0.190381
    122 C42        10.7830    3.3610   -1.0220 ca        1 MOL     -0.108040
    123 C43        10.7660    2.5140   -3.2900 ca        1 MOL     -0.108040
    124 C44        11.3450    3.3070   -2.3140 ca        1 MOL     -0.125012
    125 H51         5.5230   -0.1630   -0.0470 hn        1 MOL      0.311834
    126 H52         6.3300    1.1840   -2.5290 h1        1 MOL      0.000843
    127 H53         8.2170   -0.2940   -2.1010 hc        1 MOL      0.151046
    128 H54         8.2970    0.3320   -0.3550 hc        1 MOL      0.151046
    129 H55         9.3080    2.5100    0.2680 ha        1 MOL      0.129777
    130 H56         9.1980    1.0860   -3.8390 ha        1 MOL      0.129777
    131 H57        11.3570    3.8700   -0.2590 ha        1 MOL      0.104586
    132 H58        11.1940    2.4180   -4.2850 ha        1 MOL      0.104586
    133 H59        12.2980    3.7210   -2.5880 ha        1 MOL      0.099963
    134 N12         6.1350    3.3600   -1.2660 n         1 MOL     -0.173998
    135 C45         6.0500    4.6060   -0.5190 c3        1 MOL     -0.088837
    136 C46         4.8110    4.8710    0.3770 c         1 MOL      0.365348
    137 O20         4.8970    5.9160    1.0500 o         1 MOL     -0.535695
    138 C47         6.2680    5.6760   -1.5050 c3        1 MOL      0.226737
    139 C48         6.4720    5.0570   -2.9180 c3        1 MOL     -0.381608
    140 C49         6.2730    3.5630   -2.6920 c3        1 MOL      0.285550
    141 H60         6.9350    4.6480    0.1210 h1        1 MOL      0.104030
    142 H61         5.4650    6.4160   -1.4980 hc        1 MOL     -0.006659
    143 H62         7.1220    6.2760   -1.1870 hc        1 MOL     -0.006659
    144 H63         5.6570    5.4920   -3.5020 hc        1 MOL      0.099361
    145 H64         7.5120    5.1470   -3.2470 hc        1 MOL      0.099361
    146 H65         5.3640    3.2170   -3.1960 h1        1 MOL     -0.018957
    147 H66         7.1090    2.9960   -3.1000 h1        1 MOL     -0.018957
    148 N13         3.7350    4.0970    0.4340 n         1 MOL     -0.140335
    149 C50         2.4820    4.3680    1.1860 c3        1 MOL     -0.267427
    150 C51         2.6480    4.5370    2.7390 c         1 MOL      0.615113
    151 O21         1.8270    5.1400    3.3970 o         1 MOL     -0.532710
    152 C52         1.4890    3.1660    1.0950 c3        1 MOL     -0.027369
    153 C53         1.8690    1.8440    1.8460 c3        1 MOL     -0.024716
    154 C54         1.0920    0.6140    1.2060 c         1 MOL      0.614818
    155 O22         1.6980   -0.1610    0.4320 o         1 MOL     -0.690511
    156 O23        -0.1730    0.4440    1.2990 o         1 MOL     -0.690511
    157 H67         3.7830    3.2350   -0.0960 hn        1 MOL      0.191937
    158 H68         1.9610    5.2310    0.7790 h1        1 MOL      0.158524
    159 H69         1.4960    2.7990    0.0650 hc        1 MOL      0.050168
    160 H70         0.4510    3.3480    1.3500 hc        1 MOL      0.050168
    161 H71         1.6340    1.8920    2.9030 hc        1 MOL      0.012289
    162 H72         2.9390    1.6530    1.6950 hc        1 MOL      0.012289
    163 N14         3.8060    4.0810    3.3330 n         1 MOL     -0.313156
    164 C55         4.1540    4.3100    4.7780 c3        1 MOL     -0.154882
    165 H73         3.2410    4.4870    5.3460 h1        1 MOL      0.085629
    166 H74         4.6640    3.4320    5.1730 h1        1 MOL      0.085629
    167 H75         4.8080    5.1790    4.8620 h1        1 MOL      0.085629
    168 H76         4.5300    3.7680    2.6920 hn        1 MOL      0.261405
    169 Ca1        -0.3570   -1.4600   -0.4690 Ca        1 MOL      1.685750
    170 O24         0.5090   -0.1000   -2.5390 oh        1 MOL     -0.829282
    171 H77         0.3640   -0.0390   -3.4880 ho        1 MOL      0.415125
    172 H78         0.4960    0.8100   -2.2330 ho        1 MOL      0.415125
    173 O25        -2.4390   -1.6440    1.3470 oh        1 MOL     -0.829282
    174 H79        -3.3320   -1.5500    1.0390 ho        1 MOL      0.415125
    175 H80        -2.2630   -0.8590    1.8570 ho        1 MOL      0.415125
@<TRIPOS>BOND
     1    1    2 1   
     2    1    4 1   
     3    1    5 1   
     4    1    6 1   
     5    2    3 2   
     6    2    7 1   
     7    7    8 1   
     8    7   15 1   
     9    8    9 1   
    10    8   11 1   
    11    8   16 1   
    12    9   10 2   
    13    9   19 1   
    14   11   12 1   
    15   11   17 1   
    16   11   18 1   
    17   12   13 1   
    18   12   14 1   
    19   19   20 1   
    20   19   24 1   
    21   20   21 1   
    22   20   23 1   
    23   20   25 1   
    24   21   22 2   
    25   21   29 1   
    26   23   26 1   
    27   23   27 1   
    28   23   28 1   
    29   29   30 1   
    30   29   37 1   
    31   30   31 1   
    32   30   33 1   
    33   30   38 1   
    34   31   32 2   
    35   31   41 1   
    36   33   34 1   
    37   33   39 1   
    38   33   40 1   
    39   34   35 1   
    40   34   36 1   
    41   41   42 1   
    42   41   45 1   
    43   42   43 1   
    44   42   46 1   
    45   42   47 1   
    46   43   44 2   
    47   43   48 1   
    48   48   49 1   
    49   48   56 1   
    50   49   50 1   
    51   49   52 1   
    52   49   57 1   
    53   50   51 2   
    54   50   62 1   
    55   52   53 1   
    56   52   58 1   
    57   52   59 1   
    58   53   54 1   
    59   53   55 2   
    60   54   60 1   
    61   54   61 1   
    62   62   63 1   
    63   62   66 1   
    64   63   64 1   
    65   63   67 1   
    66   63   68 1   
    67   64   65 2   
    68   64   69 1   
    69   69   70 1   
    70   69   76 1   
    71   70   71 1   
    72   70   73 1   
    73   70   77 1   
    74   71   72 2   
    75   71   83 1   
    76   73   74 1   
    77   73   75 1   
    78   73   78 1   
    79   74   80 1   
    80   74   81 1   
    81   74   82 1   
    82   75   79 1   
    83   83   84 1   
    84   83   91 1   
    85   84   85 1   
    86   84   87 1   
    87   84   92 1   
    88   85   86 2   
    89   85  102 1   
    90   87   88 1   
    91   87   89 1   
    92   87   93 1   
    93   88   90 1   
    94   88   94 1   
    95   88   95 1   
    96   89   96 1   
    97   89   97 1   
    98   89   98 1   
    99   90   99 1   
   100   90  100 1   
   101   90  101 1   
   102  102  103 1   
   103  102  110 1   
   104  103  104 1   
   105  103  106 1   
   106  103  111 1   
   107  104  105 2   
   108  104  114 1   
   109  106  107 1   
   110  106  112 1   
   111  106  113 1   
   112  107  108 1   
   113  107  109 1   
   114  114  115 1   
   115  114  125 1   
   116  115  116 1   
   117  115  118 1   
   118  115  126 1   
   119  116  117 2   
   120  116  134 1   
   121  118  119 1   
   122  118  127 1   
   123  118  128 1   
   124  119  120 ar  
   125  119  121 ar  
   126  120  122 ar  
   127  120  129 1   
   128  121  123 ar  
   129  121  130 1   
   130  122  124 ar  
   131  122  131 1   
   132  123  124 ar  
   133  123  132 1   
   134  124  133 1   
   135  134  135 1   
   136  134  140 1   
   137  135  136 1   
   138  135  138 1   
   139  135  141 1   
   140  136  137 2   
   141  136  148 1   
   142  138  139 1   
   143  138  142 1   
   144  138  143 1   
   145  139  140 1   
   146  139  144 1   
   147  139  145 1   
   148  140  146 1   
   149  140  147 1   
   150  148  149 1   
   151  148  157 1   
   152  149  150 1   
   153  149  152 1   
   154  149  158 1   
   155  150  151 2   
   156  150  163 1   
   157  152  153 1   
   158  152  159 1   
   159  152  160 1   
   160  153  154 1   
   161  153  161 1   
   162  153  162 1   
   163  154  155 1   
   164  154  156 1   
   165  163  164 1   
   166  163  168 1   
   167  164  165 1   
   168  164  166 1   
   169  164  167 1   
   170  170  171 1   
   171  170  172 1   
   172  173  174 1   
   173  173  175 1   
@<TRIPOS>SUBSTRUCTURE
     1 MOL         1 TEMP              0 ****  ****    0 ROOT
