@<TRIPOS>MOLECULE
MOL
  178   175     1     0     0
SMALL
resp


@<TRIPOS>ATOM
      1 C1         -7.2150    7.7080    2.4580 c3        1 MOL     -0.417191
      2 C2         -8.0680    7.1020    1.3270 c         1 MOL      0.564468
      3 O1         -8.2400    7.7020    0.2330 o         1 MOL     -0.564809
      4 H1         -7.3300    7.1080    3.3610 hc        1 MOL      0.107896
      5 H2         -6.1670    7.7160    2.1580 hc        1 MOL      0.107896
      6 H3         -7.5450    8.7280    2.6560 hc        1 MOL      0.107896
      7 N1         -8.4590    5.8200    1.4040 n         1 MOL     -0.354891
      8 C3         -9.1120    5.0830    0.2970 c3        1 MOL      0.112567
      9 C4         -8.1920    4.1820   -0.5240 c         1 MOL      0.433454
     10 O2         -8.7960    3.5930   -1.4970 o         1 MOL     -0.519709
     11 C5        -10.2100    4.2300    0.9630 c3        1 MOL     -0.133900
     12 C6        -11.3860    3.7520    0.0620 c         1 MOL      0.657106
     13 O3        -11.6170    2.4950    0.0110 o         1 MOL     -0.709473
     14 O4        -12.1430    4.6250   -0.5100 o         1 MOL     -0.709473
     15 H4         -8.4130    5.4580    2.3480 hn        1 MOL      0.240916
     16 H5         -9.6540    5.7670   -0.3590 h1        1 MOL      0.060578
     17 H6        -10.5440    4.7970    1.8210 hc        1 MOL     -0.011296
     18 H7         -9.6620    3.3650    1.3520 hc        1 MOL     -0.011296
     19 N2         -6.9920    3.7910   -0.1640 n         1 MOL     -0.356556
     20 C7         -6.1660    2.9230   -0.9690 c3        1 MOL      0.221453
     21 C8         -5.2030    2.2310    0.0320 c         1 MOL      0.488147
     22 O5         -4.7700    2.8910    0.9340 o         1 MOL     -0.535816
     23 C9         -5.3460    3.7420   -2.0110 c3        1 MOL     -0.190668
     24 H8         -6.6150    4.2080    0.6830 hn        1 MOL      0.203308
     25 H9         -6.8300    2.2380   -1.4950 h1        1 MOL      0.035533
     26 H10        -5.0380    4.6990   -1.5680 hc        1 MOL      0.056408
     27 H11        -4.5730    3.1910   -2.5370 hc        1 MOL      0.056408
     28 H12        -6.0690    4.0740   -2.7410 hc        1 MOL      0.056408
     29 N3         -4.8610    0.9460   -0.0380 n         1 MOL     -0.449765
     30 C10        -5.4050   -0.1400   -0.9930 c3        1 MOL      0.030413
     31 C11        -5.5250   -1.5330   -0.3470 c         1 MOL      0.394063
     32 O6         -4.7500   -1.8640    0.5490 o         1 MOL     -0.454222
     33 C12        -4.5010   -0.3760   -2.2630 c3        1 MOL     -0.324852
     34 C13        -3.0920    0.0300   -2.0220 c         1 MOL      0.927936
     35 O7         -2.4980    0.7240   -2.8910 o         1 MOL     -0.753813
     36 O8         -2.4780   -0.3830   -1.0330 o         1 MOL     -0.753813
     37 H13        -4.1600    0.7110    0.6450 hn        1 MOL      0.318537
     38 H14        -6.4070    0.1130   -1.3180 h1        1 MOL      0.087168
     39 H15        -4.8870    0.2100   -3.1060 hc        1 MOL      0.060197
     40 H16        -4.3650   -1.4230   -2.5370 hc        1 MOL      0.060197
     41 N4         -6.4360   -2.3150   -0.8830 n         1 MOL     -0.336400
     42 C14        -6.7910   -3.7050   -0.4380 c3        1 MOL      0.013990
     43 C15        -6.5090   -4.7790   -1.5090 c         1 MOL      0.490623
     44 O9         -7.4780   -5.1930   -2.1610 o         1 MOL     -0.549801
     45 H17        -7.0510   -1.9770   -1.6130 hn        1 MOL      0.290250
     46 H18        -7.8380   -3.6280   -0.1290 h1        1 MOL      0.070549
     47 H19        -6.2970   -3.8800    0.5110 h1        1 MOL      0.070549
     48 N5         -5.3150   -5.2760   -1.7040 n         1 MOL     -0.539499
     49 C16        -4.0670   -4.8330   -1.1690 c3        1 MOL      0.309280
     50 C17        -3.9040   -5.2500    0.2840 c         1 MOL      0.367173
     51 O10        -3.9220   -6.4300    0.6800 o         1 MOL     -0.553756
     52 C18        -2.9690   -5.3100   -2.0220 c3        1 MOL     -0.375472
     53 C19        -1.5720   -4.7720   -1.6910 c         1 MOL      0.567475
     54 N6         -0.5750   -5.1990   -2.4080 n         1 MOL     -0.624989
     55 O11        -1.3700   -3.9760   -0.8410 o         1 MOL     -0.546811
     56 H20        -5.3750   -6.0710   -2.3140 hn        1 MOL      0.323078
     57 H21        -4.0400   -3.7500   -1.2050 h1        1 MOL      0.091830
     58 H22        -3.0620   -4.8070   -2.9850 hc        1 MOL      0.100909
     59 H23        -2.8850   -6.3910   -2.0970 hc        1 MOL      0.100909
     60 H24        -0.7630   -5.8510   -3.1610 hn        1 MOL      0.308921
     61 H25         0.3670   -4.8670   -2.2600 hn        1 MOL      0.308921
     62 N7         -3.5350   -4.3470    1.1600 n         1 MOL      0.020568
     63 C20        -3.1310   -4.5720    2.5040 c3        1 MOL     -0.332433
     64 C21        -1.7090   -5.1780    2.6810 c         1 MOL      0.683353
     65 O12        -1.5830   -6.1990    3.3220 o         1 MOL     -0.561805
     66 H26        -3.6160   -3.4010    0.8330 hn        1 MOL      0.072208
     67 H27        -3.8590   -5.2890    2.8730 h1        1 MOL      0.116281
     68 H28        -3.1240   -3.6910    3.1420 h1        1 MOL      0.116281
     69 N8         -0.6910   -4.5280    2.0490 n         1 MOL     -0.611965
     70 C22         0.7150   -4.9620    2.0110 c3        1 MOL     -0.069045
     71 C23         1.5670   -3.6930    1.9040 c         1 MOL      0.557809
     72 O13         1.2300   -2.7900    1.0900 o         1 MOL     -0.568741
     73 C24         1.1650   -5.8080    0.8340 c3        1 MOL      0.359712
     74 C25         2.6620   -6.2470    0.7480 c3        1 MOL     -0.166624
     75 O14         0.5670   -7.0860    0.7980 oh        1 MOL     -0.659840
     76 H29        -1.0310   -3.7650    1.4790 hn        1 MOL      0.445725
     77 H30         0.9590   -5.4550    2.9590 h1        1 MOL      0.093545
     78 H31         0.9110   -5.4000   -0.1460 h1        1 MOL      0.014856
     79 H32        -0.3840   -6.9640    0.8620 ho        1 MOL      0.421282
     80 H33         3.3350   -5.3900    0.7750 hc        1 MOL      0.047401
     81 H34         3.0090   -6.8530    1.5860 hc        1 MOL      0.047401
     82 H35         2.8170   -6.8640   -0.1490 hc        1 MOL      0.047401
     83 N9          2.5960   -3.5640    2.7480 n         1 MOL     -0.424066
     84 C26         3.6470   -2.5820    2.6790 c3        1 MOL      0.055577
     85 C27         4.6370   -2.8200    1.4620 c         1 MOL      0.233054
     86 O15         5.5490   -3.6300    1.5820 o         1 MOL     -0.510856
     87 C28         4.3960   -2.4890    4.0250 c3        1 MOL      0.367418
     88 C29         5.4010   -1.3150    4.0040 c3        1 MOL      0.040523
     89 C30         3.4420   -2.5720    5.2360 c3        1 MOL     -0.459150
     90 C31         4.8270    0.0430    3.8370 c3        1 MOL     -0.150759
     91 H36         2.8710   -4.3580    3.3060 hn        1 MOL      0.258566
     92 H37         3.1760   -1.6600    2.3590 h1        1 MOL      0.048359
     93 H38         5.0990   -3.3150    4.1140 hc        1 MOL     -0.058118
     94 H39         6.0900   -1.4170    3.1650 hc        1 MOL     -0.021950
     95 H40         5.9810   -1.3620    4.9330 hc        1 MOL     -0.021950
     96 H41         2.7880   -3.4470    5.2910 hc        1 MOL      0.103504
     97 H42         4.1370   -2.6060    6.0640 hc        1 MOL      0.103504
     98 H43         2.7450   -1.7270    5.3160 hc        1 MOL      0.103504
     99 H44         5.5320    0.8690    3.8730 hc        1 MOL      0.024863
    100 H45         4.4840    0.0600    2.7980 hc        1 MOL      0.024863
    101 H46         3.9690    0.2430    4.4810 hc        1 MOL      0.024863
    102 N10         4.4060   -2.1340    0.2940 n         1 MOL     -0.065633
    103 C32         4.9610   -2.5150   -0.9620 c3        1 MOL     -0.006580
    104 C33         5.5940   -1.2530   -1.6830 c         1 MOL      0.384206
    105 O16         5.9390   -1.3030   -2.9090 o         1 MOL     -0.533296
    106 C34         4.0000   -3.3840   -1.8380 c3        1 MOL     -0.032873
    107 C35         2.5800   -2.7760   -1.9950 c         1 MOL      0.571311
    108 O17         1.6490   -3.5410   -1.7140 o         1 MOL     -0.661666
    109 O18         2.2480   -1.6000   -2.3700 o         1 MOL     -0.661666
    110 H47         3.7270   -1.3900    0.3820 hn        1 MOL      0.188551
    111 H48         5.8150   -3.1630   -0.8110 h1        1 MOL      0.093604
    112 H49         3.9170   -4.2720   -1.2190 hc        1 MOL      0.022721
    113 H50         4.4570   -3.6120   -2.8060 hc        1 MOL      0.022721
    114 N11         5.8210   -0.1890   -0.9290 n         1 MOL     -0.431988
    115 C36         6.6850    0.9410   -1.2760 c3        1 MOL      0.323946
    116 C37         6.2590    2.2880   -0.6590 c         1 MOL      0.336334
    117 O19         5.9970    2.2130    0.5600 o         1 MOL     -0.507373
    118 C38         8.1520    0.5610   -0.9510 c3        1 MOL     -0.350437
    119 C39         9.1090    1.6010   -1.3400 ca        1 MOL      0.184256
    120 C40         9.6520    2.4440   -0.3730 ca        1 MOL     -0.183591
    121 C41         9.4050    1.7910   -2.6620 ca        1 MOL     -0.183591
    122 C42        10.4440    3.5410   -0.8520 ca        1 MOL     -0.142434
    123 C43        10.1750    2.8930   -3.1600 ca        1 MOL     -0.142434
    124 C44        10.7160    3.7950   -2.2390 ca        1 MOL     -0.077395
    125 H51         5.3820   -0.2930   -0.0240 hn        1 MOL      0.254582
    126 H52         6.5910    1.0700   -2.3570 h1        1 MOL      0.014455
    127 H53         8.4010   -0.4150   -1.3730 hc        1 MOL      0.119656
    128 H54         8.1640    0.4400    0.1360 hc        1 MOL      0.119656
    129 H55         9.4510    2.2960    0.6760 ha        1 MOL      0.133666
    130 H56         8.9530    1.1070   -3.3690 ha        1 MOL      0.133666
    131 H57        10.7860    4.2740   -0.1300 ha        1 MOL      0.110632
    132 H58        10.3000    2.9470   -4.2340 ha        1 MOL      0.110632
    133 H59        11.4930    4.4840   -2.5200 ha        1 MOL      0.098260
    134 N12         6.1510    3.4020   -1.3610 n         1 MOL     -0.130804
    135 C45         5.9760    4.7300   -0.7150 c3        1 MOL     -0.061033
    136 C46         4.7170    5.0190    0.1490 c         1 MOL      0.424212
    137 O20         4.5680    6.0860    0.6440 o         1 MOL     -0.526788
    138 C47         6.1190    5.7580   -1.8660 c3        1 MOL     -0.055173
    139 C48         6.8250    4.9850   -2.9400 c3        1 MOL     -0.055039
    140 C49         6.2770    3.5440   -2.7660 c3        1 MOL      0.077056
    141 H60         6.8330    4.8850   -0.0600 h1        1 MOL      0.100121
    142 H61         5.1470    6.0210   -2.2850 hc        1 MOL      0.059972
    143 H62         6.6220    6.6980   -1.6300 hc        1 MOL      0.059972
    144 H63         6.4370    5.2570   -3.9270 hc        1 MOL      0.014576
    145 H64         7.9140    4.9920   -2.8670 hc        1 MOL      0.014576
    146 H65         5.2770    3.4870   -3.1850 h1        1 MOL      0.039358
    147 H66         6.7900    2.7700   -3.3290 h1        1 MOL      0.039358
    148 N13         3.8590    4.0440    0.3910 n         1 MOL     -0.249762
    149 C50         2.5660    4.3440    1.1560 c3        1 MOL     -0.334606
    150 C51         2.7430    4.7470    2.6470 c         1 MOL      0.522728
    151 O21         1.8460    5.3960    3.1950 o         1 MOL     -0.516627
    152 C52         1.6610    3.1240    0.9810 c3        1 MOL     -0.051137
    153 C53         2.1900    1.8150    1.5210 c3        1 MOL     -0.079151
    154 C54         1.4140    0.7270    0.7780 c         1 MOL      0.643753
    155 O22         0.1840    0.8200    0.7800 o         1 MOL     -0.690502
    156 O23         2.0140   -0.1300    0.0330 o         1 MOL     -0.690502
    157 H67         4.0980    3.1660   -0.0480 hn        1 MOL      0.240154
    158 H68         2.0820    5.1220    0.5680 h1        1 MOL      0.212077
    159 H69         1.2690    3.0850   -0.0390 hc        1 MOL      0.085909
    160 H70         0.7110    3.2960    1.4750 hc        1 MOL      0.085909
    161 H71         2.1090    1.6160    2.5830 hc        1 MOL      0.012349
    162 H72         3.2420    1.7170    1.2330 hc        1 MOL      0.012349
    163 N14         3.9700    4.7010    3.2160 n         1 MOL     -0.199726
    164 C55         4.3260    5.2530    4.5170 c3        1 MOL     -0.039992
    165 H73         4.4690    4.4410    5.2290 h1        1 MOL      0.043708
    166 H74         5.2490    5.8260    4.4290 h1        1 MOL      0.043708
    167 H75         3.5260    5.9050    4.8670 h1        1 MOL      0.043708
    168 H76         4.7240    4.1680    2.7920 hn        1 MOL      0.217865
    169 Ca1         0.0060   -1.3840   -1.0180 Ca        1 MOL      1.769044
    170 O24        -1.3640   -2.1180   -3.4820 oh        1 MOL     -0.892702
    171 H77        -1.5260   -2.8820   -4.0260 ho        1 MOL      0.419055
    172 H78        -1.5610   -1.3730   -4.0530 ho        1 MOL      0.419055
    173 O25         0.1640    0.3090   -2.9840 oh        1 MOL     -0.892702
    174 H79        -0.7180    0.6420   -3.1850 ho        1 MOL      0.419055
    175 H80         0.6790    0.5190   -3.7640 ho        1 MOL      0.419055
    176 O26        -1.7760   -1.7420    1.1280 oh        1 MOL     -0.892702
    177 H81        -2.5220   -1.3960    0.6310 ho        1 MOL      0.419055
    178 H82        -1.6280   -1.1060    1.8150 ho        1 MOL      0.419055
@<TRIPOS>BOND
     1    1    2 1   
     2    1    4 1   
     3    1    5 1   
     4    1    6 1   
     5    2    3 2   
     6    2    7 1   
     7    7    8 1   
     8    7   15 1   
     9    8    9 1   
    10    8   11 1   
    11    8   16 1   
    12    9   10 2   
    13    9   19 1   
    14   11   12 1   
    15   11   17 1   
    16   11   18 1   
    17   12   13 1   
    18   12   14 1   
    19   19   20 1   
    20   19   24 1   
    21   20   21 1   
    22   20   23 1   
    23   20   25 1   
    24   21   22 2   
    25   21   29 1   
    26   23   26 1   
    27   23   27 1   
    28   23   28 1   
    29   29   30 1   
    30   29   37 1   
    31   30   31 1   
    32   30   33 1   
    33   30   38 1   
    34   31   32 2   
    35   31   41 1   
    36   33   34 1   
    37   33   39 1   
    38   33   40 1   
    39   34   35 1   
    40   34   36 1   
    41   41   42 1   
    42   41   45 1   
    43   42   43 1   
    44   42   46 1   
    45   42   47 1   
    46   43   44 2   
    47   43   48 1   
    48   48   49 1   
    49   48   56 1   
    50   49   50 1   
    51   49   52 1   
    52   49   57 1   
    53   50   51 2   
    54   50   62 1   
    55   52   53 1   
    56   52   58 1   
    57   52   59 1   
    58   53   54 1   
    59   53   55 2   
    60   54   60 1   
    61   54   61 1   
    62   62   63 1   
    63   62   66 1   
    64   63   64 1   
    65   63   67 1   
    66   63   68 1   
    67   64   65 2   
    68   64   69 1   
    69   69   70 1   
    70   69   76 1   
    71   70   71 1   
    72   70   73 1   
    73   70   77 1   
    74   71   72 2   
    75   71   83 1   
    76   73   74 1   
    77   73   75 1   
    78   73   78 1   
    79   74   80 1   
    80   74   81 1   
    81   74   82 1   
    82   75   79 1   
    83   83   84 1   
    84   83   91 1   
    85   84   85 1   
    86   84   87 1   
    87   84   92 1   
    88   85   86 2   
    89   85  102 1   
    90   87   88 1   
    91   87   89 1   
    92   87   93 1   
    93   88   90 1   
    94   88   94 1   
    95   88   95 1   
    96   89   96 1   
    97   89   97 1   
    98   89   98 1   
    99   90   99 1   
   100   90  100 1   
   101   90  101 1   
   102  102  103 1   
   103  102  110 1   
   104  103  104 1   
   105  103  106 1   
   106  103  111 1   
   107  104  105 2   
   108  104  114 1   
   109  106  107 1   
   110  106  112 1   
   111  106  113 1   
   112  107  108 1   
   113  107  109 1   
   114  114  115 1   
   115  114  125 1   
   116  115  116 1   
   117  115  118 1   
   118  115  126 1   
   119  116  117 2   
   120  116  134 1   
   121  118  119 1   
   122  118  127 1   
   123  118  128 1   
   124  119  120 ar  
   125  119  121 ar  
   126  120  122 ar  
   127  120  129 1   
   128  121  123 ar  
   129  121  130 1   
   130  122  124 ar  
   131  122  131 1   
   132  123  124 ar  
   133  123  132 1   
   134  124  133 1   
   135  134  135 1   
   136  134  140 1   
   137  135  136 1   
   138  135  138 1   
   139  135  141 1   
   140  136  137 2   
   141  136  148 1   
   142  138  139 1   
   143  138  142 1   
   144  138  143 1   
   145  139  140 1   
   146  139  144 1   
   147  139  145 1   
   148  140  146 1   
   149  140  147 1   
   150  148  149 1   
   151  148  157 1   
   152  149  150 1   
   153  149  152 1   
   154  149  158 1   
   155  150  151 2   
   156  150  163 1   
   157  152  153 1   
   158  152  159 1   
   159  152  160 1   
   160  153  154 1   
   161  153  161 1   
   162  153  162 1   
   163  154  155 1   
   164  154  156 1   
   165  163  164 1   
   166  163  168 1   
   167  164  165 1   
   168  164  166 1   
   169  164  167 1   
   170  170  171 1   
   171  170  172 1   
   172  173  174 1   
   173  173  175 1   
   174  176  177 1   
   175  176  178 1   
@<TRIPOS>SUBSTRUCTURE
     1 MOL         1 TEMP              0 ****  ****    0 ROOT
