@<TRIPOS>MOLECULE
MOL
  189   185     1     0     0
SMALL
resp


@<TRIPOS>ATOM
      1 C1         -3.9490   -4.5320   -3.2390 c3        1 MOL     -0.376131
      2 C2         -4.8720   -3.9070   -2.2450 c         1 MOL      0.707496
      3 O1         -4.3560   -3.4590   -1.2120 o         1 MOL     -0.666658
      4 H1         -3.1980   -5.1230   -2.7140 hc        1 MOL      0.103033
      5 H2         -4.5170   -5.1790   -3.9080 hc        1 MOL      0.103033
      6 H3         -3.4560   -3.7520   -3.8190 hc        1 MOL      0.103033
      7 N1         -6.1870   -3.6890   -2.5880 n         1 MOL     -0.638002
      8 C3         -7.1920   -2.9680   -1.7520 c3        1 MOL      0.308271
      9 C4         -6.5850   -1.5210   -1.4610 c         1 MOL      0.443125
     10 O2         -6.1960   -1.1120   -0.3420 o         1 MOL     -0.544400
     11 C5         -7.5950   -3.7150   -0.4290 c3        1 MOL     -0.379216
     12 C6         -6.4920   -4.2420    0.4670 c         1 MOL      0.935061
     13 O3         -6.0780   -3.4130    1.2890 o         1 MOL     -0.758511
     14 O4         -6.1930   -5.4250    0.5130 o         1 MOL     -0.758511
     15 H4         -6.5150   -4.1110   -3.4450 hn        1 MOL      0.320548
     16 H5         -8.0720   -2.8340   -2.3870 h1        1 MOL      0.011726
     17 H6         -8.1810   -4.5720   -0.7480 hc        1 MOL      0.065428
     18 H7         -8.2590   -3.0450    0.1220 hc        1 MOL      0.065428
     19 N2         -6.3150   -0.8020   -2.5910 n         1 MOL     -0.609241
     20 C7         -5.7130    0.5190   -2.8740 c3        1 MOL      0.236631
     21 C8         -6.4770    1.7240   -2.3180 c         1 MOL      0.432863
     22 O5         -6.7720    2.6930   -2.9610 o         1 MOL     -0.567484
     23 C9         -4.1530    0.5540   -2.7060 c3        1 MOL      0.095223
     24 C10        -3.7020    1.9550   -3.1860 c3        1 MOL     -0.082324
     25 C11        -3.4130   -0.5350   -3.5670 c3        1 MOL     -0.012434
     26 C12        -2.1950    2.1800   -3.4060 c3        1 MOL     -0.241399
     27 H8         -6.5260   -1.3020   -3.4480 hn        1 MOL      0.289698
     28 H9         -5.8640    0.7050   -3.9420 h1        1 MOL     -0.014832
     29 H10        -3.9590    0.4460   -1.6360 hc        1 MOL      0.082253
     30 H11        -4.0480    2.6900   -2.4680 hc        1 MOL      0.024224
     31 H12        -4.1340    2.2520   -4.1460 hc        1 MOL      0.024224
     32 H13        -3.2650   -0.1390   -4.5740 hc        1 MOL     -0.017490
     33 H14        -2.4320   -0.6780   -3.1180 hc        1 MOL     -0.017490
     34 H15        -4.0830   -1.3870   -3.5420 hc        1 MOL     -0.017490
     35 H16        -2.0740    3.1820   -3.8110 hc        1 MOL      0.072474
     36 H17        -1.7120    1.9740   -2.4520 hc        1 MOL      0.072474
     37 H18        -1.8660    1.5440   -4.2340 hc        1 MOL      0.072474
     38 N3         -6.8580    1.6620   -0.9840 n         1 MOL     -0.333686
     39 C13        -7.6660    2.6420   -0.1900 c3        1 MOL      0.190708
     40 C14        -6.9820    4.0590   -0.0640 c         1 MOL      0.614656
     41 O6         -7.7320    4.9550   -0.0100 o         1 MOL     -0.520741
     42 C15        -7.9510    2.1050    1.1850 c3        1 MOL     -0.397372
     43 C16        -8.9080    3.0000    1.9770 c         1 MOL      0.664648
     44 O7         -8.5180    3.6850    2.9740 o         1 MOL     -0.681110
     45 O8        -10.0700    3.1790    1.5320 o         1 MOL     -0.681110
     46 H19        -6.4180    0.9020   -0.4840 hn        1 MOL      0.246687
     47 H20        -8.6360    2.8350   -0.6420 h1        1 MOL      0.021999
     48 H21        -7.0140    1.8080    1.6490 hc        1 MOL      0.104624
     49 H22        -8.5530    1.2260    1.0090 hc        1 MOL      0.104624
     50 N4         -5.6590    4.2330   -0.0820 n         1 MOL     -0.627996
     51 C17        -4.6380    3.3530    0.4970 c3        1 MOL      0.606637
     52 C18        -3.3530    4.0900    0.9660 c         1 MOL      0.367692
     53 O9         -3.2500    5.2970    0.7310 o         1 MOL     -0.543277
     54 H23        -5.3790    5.1890   -0.2400 hn        1 MOL      0.268932
     55 H24        -4.4340    2.5690   -0.2290 h1        1 MOL     -0.109088
     56 H25        -5.0640    2.7850    1.3240 h1        1 MOL     -0.109088
     57 N5         -2.4240    3.5470    1.8010 n         1 MOL     -0.451126
     58 C19        -2.4230    2.2410    2.4190 c3        1 MOL      0.060171
     59 C20        -2.6260    1.1080    1.4160 c         1 MOL      0.093418
     60 O10        -3.6500    0.5080    1.1820 o         1 MOL     -0.417667
     61 C21        -3.4950    2.1920    3.6110 c3        1 MOL     -0.130460
     62 C22        -3.2180    1.2200    4.6250 c         1 MOL      0.699053
     63 O11        -3.9960    1.2980    5.6100 o         1 MOL     -0.709628
     64 O12        -2.2020    0.4650    4.5710 o         1 MOL     -0.709628
     65 H26        -1.7050    4.2400    2.0020 hn        1 MOL      0.313664
     66 H27        -1.4070    2.0710    2.7940 h1        1 MOL      0.087570
     67 H28        -4.4530    1.8490    3.2150 hc        1 MOL      0.072345
     68 H29        -3.6720    3.1300    4.1420 hc        1 MOL      0.072345
     69 N6         -1.6150    0.8330    0.5360 n         1 MOL     -0.052507
     70 C23        -0.1690    1.1830    0.7100 c3        1 MOL     -0.237317
     71 C24         0.3190    2.4010   -0.0920 c         1 MOL      0.574518
     72 O13        -0.4960    3.1460   -0.5850 o         1 MOL     -0.428932
     73 H30        -1.7930    0.0860   -0.1180 hn        1 MOL      0.193953
     74 H31         0.4380    0.3280    0.4050 h1        1 MOL      0.108531
     75 H32        -0.0060    1.3070    1.7820 h1        1 MOL      0.108531
     76 N7          1.6730    2.7680    0.0450 n         1 MOL     -0.525364
     77 C25         2.2200    4.0270   -0.5020 c3        1 MOL     -0.023475
     78 C26         2.7990    3.8150   -1.8380 c         1 MOL      0.445637
     79 O14         2.9050    4.7770   -2.6520 o         1 MOL     -0.512849
     80 C27         3.2120    4.5630    0.5380 c3        1 MOL      0.035446
     81 C28         2.5980    5.2780    1.7410 c3        1 MOL     -0.232073
     82 C29         2.2600    6.7300    1.4260 c         1 MOL      0.784612
     83 N8          2.4100    7.6390    2.3820 n         1 MOL     -0.880267
     84 O15         2.0000    7.1770    0.3630 o         1 MOL     -0.555009
     85 H33         2.3320    2.1930    0.5390 hn        1 MOL      0.295358
     86 H34         1.4390    4.7680   -0.6560 h1        1 MOL      0.129591
     87 H35         3.9730    5.1830    0.0470 hc        1 MOL      0.015958
     88 H36         3.7920    3.7040    0.8720 hc        1 MOL      0.015958
     89 H37         3.3330    5.2530    2.5400 hc        1 MOL      0.062475
     90 H38         1.6250    4.8750    2.0280 hc        1 MOL      0.062475
     91 H39         2.5790    7.3930    3.3460 hn        1 MOL      0.369297
     92 H40         2.2840    8.5870    2.0460 hn        1 MOL      0.369297
     93 N9          3.1700    2.5680   -2.2010 n         1 MOL     -0.275192
     94 C30         3.8220    2.1540   -3.4760 c3        1 MOL     -0.047389
     95 C31         5.2550    1.6080   -3.3230 c         1 MOL      0.680160
     96 O16         5.8410    1.2180   -4.3430 o         1 MOL     -0.580189
     97 C32         2.9370    1.2140   -4.3150 c3        1 MOL      0.310827
     98 C33         1.5230    1.7440   -4.6560 c3        1 MOL     -0.275314
     99 C34         2.6950   -0.1850   -3.6720 c3        1 MOL     -0.275314
    100 H41         3.0960    1.8290   -1.5110 hn        1 MOL      0.169838
    101 H42         4.0880    3.0480   -4.0450 h1        1 MOL      0.073906
    102 H43         3.4990    1.1950   -5.2440 hc        1 MOL     -0.050189
    103 H44         1.0890    1.0420   -5.3690 hc        1 MOL      0.058315
    104 H45         0.8960    1.7370   -3.7670 hc        1 MOL      0.058315
    105 H46         1.6210    2.6820   -5.2040 hc        1 MOL      0.058315
    106 H47         2.2390    0.0590   -2.7070 hc        1 MOL      0.058315
    107 H48         2.0230   -0.6970   -4.3620 hc        1 MOL      0.058315
    108 H49         3.6450   -0.6850   -3.5090 hc        1 MOL      0.058315
    109 N10         5.7720    1.3200   -2.1000 n         1 MOL     -0.631950
    110 C35         7.1270    0.7150   -2.0260 c3        1 MOL      0.198079
    111 C36         7.1550   -0.5660   -1.1460 c         1 MOL      0.420877
    112 O17         8.0240   -1.4330   -1.4190 o         1 MOL     -0.556288
    113 C37         8.1010    1.8220   -1.5090 c3        1 MOL     -0.207850
    114 C38         8.0450    3.1360   -2.2030 c         1 MOL      0.639448
    115 N11         8.6660    3.2770   -3.3250 n         1 MOL     -0.813143
    116 O18         7.2150    3.9780   -1.8500 o         1 MOL     -0.564630
    117 H50         5.2150    1.5160   -1.2870 hn        1 MOL      0.327237
    118 H51         7.5600    0.4380   -2.9820 h1        1 MOL      0.068402
    119 H52         9.1250    1.4520   -1.4800 hc        1 MOL      0.054729
    120 H53         7.7620    2.1160   -0.5130 hc        1 MOL      0.054729
    121 H54         9.0390    2.4650   -3.7890 hn        1 MOL      0.381915
    122 H55         8.4620    4.1570   -3.7850 hn        1 MOL      0.381915
    123 N12         6.2300   -0.7380   -0.2380 n         1 MOL     -0.201610
    124 C39         6.1740   -1.8560    0.7380 c3        1 MOL      0.310075
    125 C40         4.8850   -2.5430    0.7360 c         1 MOL      0.214756
    126 O19         3.8890   -1.9120    0.3780 o         1 MOL     -0.430612
    127 C41         6.4500   -1.2690    2.0820 c3        1 MOL     -0.181168
    128 C42         7.6570   -0.3870    2.2470 ca        1 MOL     -0.004436
    129 C43         7.6310    1.0400    2.2770 ca        1 MOL     -0.158997
    130 C44         8.9460   -1.0710    2.2350 ca        1 MOL     -0.158997
    131 C45         8.8680    1.7090    2.5810 ca        1 MOL     -0.249750
    132 C46        10.1650   -0.3790    2.5230 ca        1 MOL     -0.249750
    133 C47        10.1090    0.9950    2.8500 ca        1 MOL      0.289419
    134 O20        11.2140    1.7010    3.1570 oh        1 MOL     -0.484643
    135 H56         5.4070   -0.1640   -0.3110 hn        1 MOL      0.146161
    136 H57         6.9150   -2.5260    0.3160 h1        1 MOL     -0.005193
    137 H58         6.4980   -2.0660    2.8180 hc        1 MOL      0.103949
    138 H59         5.5600   -0.6960    2.3280 hc        1 MOL      0.103949
    139 H60         6.6780    1.5170    2.1220 ha        1 MOL      0.136784
    140 H61         9.0190   -2.1310    2.0870 ha        1 MOL      0.136784
    141 H62         8.9190    2.7860    2.6510 ha        1 MOL      0.139028
    142 H63        11.0910   -0.9270    2.4990 ha        1 MOL      0.139028
    143 H64        11.0500    2.6090    3.4200 ho        1 MOL      0.362342
    144 N13         4.8130   -3.8090    1.1650 n         1 MOL     -0.424545
    145 C48         3.6100   -4.5920    1.4730 c3        1 MOL      0.140357
    146 C49         2.5740   -4.9430    0.3850 c         1 MOL      0.266232
    147 O21         2.1000   -6.0580    0.3220 o         1 MOL     -0.481663
    148 C50         2.9340   -3.9220    2.7340 c3        1 MOL      0.079427
    149 C51         3.8200   -3.5780    3.8910 c3        1 MOL     -0.433447
    150 C52         3.0060   -3.6410    5.2100 c         1 MOL      0.788052
    151 O22         3.2010   -4.5710    5.9980 o         1 MOL     -0.731149
    152 O23         2.2170   -2.7730    5.4410 o         1 MOL     -0.731149
    153 H65         5.6990   -4.1720    1.4950 hn        1 MOL      0.285409
    154 H66         3.9480   -5.5860    1.7750 h1        1 MOL      0.051669
    155 H67         2.2840   -4.7290    3.0960 hc        1 MOL      0.050387
    156 H68         2.3820   -3.0190    2.4480 hc        1 MOL      0.050387
    157 H69         4.1330   -2.5620    3.6430 hc        1 MOL      0.056368
    158 H70         4.6590   -4.2590    3.8670 hc        1 MOL      0.056368
    159 N14         2.2090   -3.9950   -0.4840 n         1 MOL     -0.101129
    160 C53         1.1890   -4.2640   -1.5170 c3        1 MOL     -0.336215
    161 C54         1.5570   -5.2710   -2.5800 c         1 MOL      0.557597
    162 O24         0.7620   -5.9620   -3.1590 o         1 MOL     -0.554699
    163 C55         0.6820   -2.9440   -2.1150 c3        1 MOL      0.019473
    164 C56         0.2910   -1.8350   -1.2070 c3        1 MOL      0.287798
    165 C57        -1.0310   -2.1240   -0.5570 c         1 MOL      0.703149
    166 O25        -1.1000   -2.9140    0.4030 o         1 MOL     -0.733153
    167 O26        -2.0600   -1.4290   -0.7290 o         1 MOL     -0.733153
    168 H71         2.5020   -3.0650   -0.2260 hn        1 MOL      0.170517
    169 H72         0.3580   -4.8020   -1.0820 h1        1 MOL      0.197573
    170 H73        -0.0830   -3.1180   -2.8750 hc        1 MOL     -0.002094
    171 H74         1.5170   -2.5720   -2.7110 hc        1 MOL     -0.002094
    172 H75         0.1720   -0.8860   -1.7240 hc        1 MOL     -0.098249
    173 H76         1.0920   -1.6710   -0.4870 hc        1 MOL     -0.098249
    174 N15         2.8190   -5.4900   -2.8010 n         1 MOL     -0.172769
    175 C58         3.3880   -6.4150   -3.6470 c3        1 MOL     -0.241135
    176 H77         2.6430   -6.7550   -4.3660 h1        1 MOL      0.090076
    177 H78         4.2220   -5.9570   -4.1770 h1        1 MOL      0.090076
    178 H79         3.7480   -7.2650   -3.0670 h1        1 MOL      0.090076
    179 H80         3.4540   -5.0260   -2.1620 hn        1 MOL      0.198638
    180 Ca1        -3.6970   -2.1590    1.0300 Ca        1 MOL      1.753091
    181 O27        -3.4650   -4.7170    2.2570 oh        1 MOL     -0.829795
    182 H81        -3.8970   -5.3740    1.7000 ho        1 MOL      0.405197
    183 H82        -2.5700   -5.0590    2.3760 ho        1 MOL      0.405197
    184 O28        -4.7580   -1.8840    3.5800 oh        1 MOL     -0.829795
    185 H83        -4.5740   -2.6790    4.0910 ho        1 MOL      0.405197
    186 H84        -4.9940   -1.2270    4.2310 ho        1 MOL      0.405197
    187 O29        -1.8580   -1.5510    2.8570 oh        1 MOL     -0.829795
    188 H85        -2.0200   -0.7640    3.3730 ho        1 MOL      0.405197
    189 H86        -1.4760   -2.1760    3.4820 ho        1 MOL      0.405197
@<TRIPOS>BOND
     1    1    2 1   
     2    1    4 1   
     3    1    5 1   
     4    1    6 1   
     5    2    3 2   
     6    2    7 1   
     7    7    8 1   
     8    7   15 1   
     9    8    9 1   
    10    8   11 1   
    11    8   16 1   
    12    9   10 2   
    13    9   19 1   
    14   11   12 1   
    15   11   17 1   
    16   11   18 1   
    17   12   13 1   
    18   12   14 1   
    19   19   20 1   
    20   19   27 1   
    21   20   21 1   
    22   20   23 1   
    23   20   28 1   
    24   21   22 2   
    25   21   38 1   
    26   23   24 1   
    27   23   25 1   
    28   23   29 1   
    29   24   26 1   
    30   24   30 1   
    31   24   31 1   
    32   25   32 1   
    33   25   33 1   
    34   25   34 1   
    35   26   35 1   
    36   26   36 1   
    37   26   37 1   
    38   38   39 1   
    39   38   46 1   
    40   39   40 1   
    41   39   42 1   
    42   39   47 1   
    43   40   41 2   
    44   40   50 1   
    45   42   43 1   
    46   42   48 1   
    47   42   49 1   
    48   43   44 1   
    49   43   45 1   
    50   50   51 1   
    51   50   54 1   
    52   51   52 1   
    53   51   55 1   
    54   51   56 1   
    55   52   53 2   
    56   52   57 1   
    57   57   58 1   
    58   57   65 1   
    59   58   59 1   
    60   58   61 1   
    61   58   66 1   
    62   59   60 2   
    63   59   69 1   
    64   61   62 1   
    65   61   67 1   
    66   61   68 1   
    67   62   63 1   
    68   62   64 1   
    69   69   70 1   
    70   69   73 1   
    71   70   71 1   
    72   70   74 1   
    73   70   75 1   
    74   71   72 2   
    75   71   76 1   
    76   76   77 1   
    77   76   85 1   
    78   77   78 1   
    79   77   80 1   
    80   77   86 1   
    81   78   79 2   
    82   78   93 1   
    83   80   81 1   
    84   80   87 1   
    85   80   88 1   
    86   81   82 1   
    87   81   89 1   
    88   81   90 1   
    89   82   83 1   
    90   82   84 2   
    91   83   91 1   
    92   83   92 1   
    93   93   94 1   
    94   93  100 1   
    95   94   95 1   
    96   94   97 1   
    97   94  101 1   
    98   95   96 2   
    99   95  109 1   
   100   97   98 1   
   101   97   99 1   
   102   97  102 1   
   103   98  103 1   
   104   98  104 1   
   105   98  105 1   
   106   99  106 1   
   107   99  107 1   
   108   99  108 1   
   109  109  110 1   
   110  109  117 1   
   111  110  111 1   
   112  110  113 1   
   113  110  118 1   
   114  111  112 2   
   115  111  123 1   
   116  113  114 1   
   117  113  119 1   
   118  113  120 1   
   119  114  115 1   
   120  114  116 2   
   121  115  121 1   
   122  115  122 1   
   123  123  124 1   
   124  123  135 1   
   125  124  125 1   
   126  124  127 1   
   127  124  136 1   
   128  125  126 2   
   129  125  144 1   
   130  127  128 1   
   131  127  137 1   
   132  127  138 1   
   133  128  129 ar  
   134  128  130 ar  
   135  129  131 ar  
   136  129  139 1   
   137  130  132 ar  
   138  130  140 1   
   139  131  133 ar  
   140  131  141 1   
   141  132  133 ar  
   142  132  142 1   
   143  133  134 1   
   144  134  143 1   
   145  144  145 1   
   146  144  153 1   
   147  145  146 1   
   148  145  148 1   
   149  145  154 1   
   150  146  147 2   
   151  146  159 1   
   152  148  149 1   
   153  148  155 1   
   154  148  156 1   
   155  149  150 1   
   156  149  157 1   
   157  149  158 1   
   158  150  151 1   
   159  150  152 1   
   160  159  160 1   
   161  159  168 1   
   162  160  161 1   
   163  160  163 1   
   164  160  169 1   
   165  161  162 2   
   166  161  174 1   
   167  163  164 1   
   168  163  170 1   
   169  163  171 1   
   170  164  165 1   
   171  164  172 1   
   172  164  173 1   
   173  165  166 1   
   174  165  167 1   
   175  174  175 1   
   176  174  179 1   
   177  175  176 1   
   178  175  177 1   
   179  175  178 1   
   180  181  182 1   
   181  181  183 1   
   182  184  185 1   
   183  184  186 1   
   184  187  188 1   
   185  187  189 1   
@<TRIPOS>SUBSTRUCTURE
     1 MOL         1 TEMP              0 ****  ****    0 ROOT
