@<TRIPOS>MOLECULE
MOL
  188   182     1     0     0
SMALL
resp


@<TRIPOS>ATOM
      1 C1          8.7580    5.8810    1.5220 c3        1 MOL     -0.360361
      2 C2          9.2550    4.4150    1.7150 c         1 MOL      0.751459
      3 O1          8.9270    3.7750    2.7120 o         1 MOL     -0.598522
      4 H1          9.6130    6.5560    1.5160 hc        1 MOL      0.089887
      5 H2          8.2250    5.9630    0.5760 hc        1 MOL      0.089887
      6 H3          8.0910    6.1500    2.3410 hc        1 MOL      0.089887
      7 N1         10.0380    3.8110    0.7590 n         1 MOL     -0.634374
      8 C3         10.4100    2.3600    0.7300 c3        1 MOL      0.125047
      9 C4          9.2130    1.4260    0.5280 c         1 MOL      0.553528
     10 O2          8.1950    1.8450    0.0560 o         1 MOL     -0.546678
     11 C5         11.5560    2.0950   -0.1780 c3        1 MOL     -0.105684
     12 C6         12.9170    2.8320    0.0530 c         1 MOL      0.648722
     13 O3         12.9360    4.0090    0.4870 o         1 MOL     -0.652326
     14 O4         13.9430    2.2000   -0.2610 o         1 MOL     -0.652326
     15 H4         10.5200    4.3830    0.0690 hn        1 MOL      0.316970
     16 H5         10.8490    2.1740    1.7090 h1        1 MOL      0.056395
     17 H6         11.2100    2.1890   -1.2000 hc        1 MOL     -0.002864
     18 H7         11.7850    1.0270   -0.1580 hc        1 MOL     -0.002864
     19 N2          9.2490    0.1810    0.9080 n         1 MOL     -0.396538
     20 C7          8.3850   -0.9540    0.5090 c3        1 MOL     -0.048004
     21 C8          7.0330   -0.8810    1.1980 c         1 MOL      0.750229
     22 O5          6.9040   -1.1960    2.3970 o         1 MOL     -0.597457
     23 C9          9.1710   -2.2160    0.7130 c3        1 MOL     -0.095269
     24 C10         8.5010   -3.5560    0.3610 c3        1 MOL     -0.207418
     25 C11         9.4510   -4.6070    0.6280 c3        1 MOL      0.062309
     26 C12         8.9160   -5.8950    0.0810 c3        1 MOL      0.036420
     27 N3          9.8950   -6.9790    0.2690 n4        1 MOL     -0.303847
     28 H8          9.9810    0.0100    1.5760 hn        1 MOL      0.242420
     29 H9          8.1400   -1.0010   -0.5560 h1        1 MOL      0.076593
     30 H10         9.5170   -2.2030    1.7440 hc        1 MOL      0.062534
     31 H11        10.1410   -2.1790    0.2180 hc        1 MOL      0.062534
     32 H12         8.1080   -3.5310   -0.6620 hc        1 MOL      0.087617
     33 H13         7.5950   -3.6430    0.9640 hc        1 MOL      0.087617
     34 H14         9.6940   -4.6900    1.6810 hc        1 MOL      0.033385
     35 H15        10.4220   -4.3830    0.1850 hc        1 MOL      0.033385
     36 H16         8.7140   -5.8130   -0.9940 hx        1 MOL      0.080624
     37 H17         7.8950   -6.0660    0.4130 hx        1 MOL      0.080624
     38 H18         9.4990   -7.8380   -0.1060 hn        1 MOL      0.253174
     39 H19        10.7760   -6.9180   -0.2220 hn        1 MOL      0.253174
     40 H20        10.2010   -7.1280    1.2130 hn        1 MOL      0.253174
     41 N4          5.9570   -0.4130    0.5140 n         1 MOL     -0.525776
     42 C13         4.5840   -0.4140    1.0170 c3        1 MOL      0.218864
     43 C14         4.1400   -1.8490    1.2410 c         1 MOL      0.334876
     44 O6          4.4260   -2.6510    0.3680 o         1 MOL     -0.518716
     45 C15         3.6240    0.3040   -0.0120 c3        1 MOL     -0.271690
     46 C16         2.2070    0.3120    0.5110 c         1 MOL      0.411728
     47 O7          1.4920   -0.7280    0.3810 o         1 MOL     -0.597412
     48 O8          1.7290    1.3530    1.0090 o         1 MOL     -0.597412
     49 H21         6.0240   -0.2300   -0.4740 hn        1 MOL      0.277179
     50 H22         4.5350    0.1160    1.9710 h1        1 MOL      0.059632
     51 H23         3.5960   -0.3580   -0.8840 hc        1 MOL      0.125083
     52 H24         3.9690    1.3080   -0.2760 hc        1 MOL      0.125083
     53 N5          3.3990   -2.2180    2.2830 n         1 MOL     -0.237544
     54 C17         3.0080   -3.6100    2.6280 c3        1 MOL     -0.098110
     55 C18         2.1510   -4.2380    1.5260 c         1 MOL      0.465030
     56 O9          2.0810   -5.4810    1.5300 o         1 MOL     -0.563728
     57 H25         3.2020   -1.5140    2.9900 hn        1 MOL      0.219286
     58 H26         2.5520   -3.6040    3.6220 h1        1 MOL      0.101471
     59 H27         3.8920   -4.2230    2.7590 h1        1 MOL      0.101471
     60 N6          1.4680   -3.5340    0.6620 n         1 MOL     -0.141686
     61 C19         0.6730   -4.0250   -0.4470 c3        1 MOL     -0.235561
     62 C20         0.8140   -3.1700   -1.7720 c         1 MOL      0.457367
     63 O10        -0.0280   -3.2270   -2.6840 o         1 MOL     -0.465939
     64 C21        -0.8000   -4.3040   -0.1160 c3        1 MOL     -0.071094
     65 C22        -1.5240   -3.1050    0.4400 c         1 MOL      0.558024
     66 N7         -2.8130   -3.1410    0.5170 n         1 MOL     -0.761472
     67 O11        -0.9160   -2.0750    0.6780 o         1 MOL     -0.601544
     68 H28         1.4580   -2.5280    0.7530 hn        1 MOL      0.217609
     69 H29         1.0050   -4.9930   -0.8300 h1        1 MOL      0.156892
     70 H30        -0.9320   -5.1420    0.5610 hc        1 MOL      0.080695
     71 H31        -1.4390   -4.5820   -0.9650 hc        1 MOL      0.080695
     72 H32        -3.3400   -3.9970    0.4280 hn        1 MOL      0.375253
     73 H33        -3.1660   -2.2840    0.9240 hn        1 MOL      0.375253
     74 N8          1.9940   -2.5560   -1.9530 n         1 MOL     -0.246194
     75 C23         2.4290   -1.9290   -3.2510 c3        1 MOL     -0.190198
     76 C24         2.1070   -0.4240   -3.4240 c         1 MOL      0.503473
     77 O12         2.6660    0.2330   -4.3190 o         1 MOL     -0.522662
     78 H34         2.6270   -2.5320   -1.1650 hn        1 MOL      0.224837
     79 H35         1.9160   -2.4280   -4.0740 h1        1 MOL      0.121488
     80 H36         3.5090   -2.1150   -3.2790 h1        1 MOL      0.121488
     81 N9          1.2500    0.1560   -2.5530 n         1 MOL     -0.283904
     82 C25         0.4940    1.4610   -2.8300 c3        1 MOL     -0.042413
     83 C26        -0.7690    1.3710   -2.0740 c         1 MOL      0.289717
     84 O13        -0.7010    0.8790   -0.9430 o         1 MOL     -0.521087
     85 C27         1.3890    2.6970   -2.5560 c3        1 MOL     -0.429049
     86 C28         0.5720    3.9190   -2.2370 ca        1 MOL      0.104513
     87 C29         0.0110    4.6830   -3.2800 ca        1 MOL     -0.179753
     88 C30         0.4100    4.3590   -0.9460 ca        1 MOL     -0.179753
     89 C31        -0.6920    5.8740   -3.0920 ca        1 MOL     -0.196438
     90 C32        -0.3460    5.5510   -0.6970 ca        1 MOL     -0.196438
     91 C33        -0.9310    6.3160   -1.7430 ca        1 MOL      0.269825
     92 O14        -1.4790    7.5620   -1.5350 oh        1 MOL     -0.425657
     93 H37         0.9910   -0.3790   -1.7420 hn        1 MOL      0.292778
     94 H38         0.2990    1.3980   -3.9000 h1        1 MOL      0.105434
     95 H39         2.0270    2.8410   -3.4210 hc        1 MOL      0.209340
     96 H40         1.9850    2.5860   -1.6490 hc        1 MOL      0.209340
     97 H41         0.2580    4.3620   -4.2790 ha        1 MOL      0.134966
     98 H42         0.8380    3.8680   -0.0840 ha        1 MOL      0.134966
     99 H43        -1.0320    6.4840   -3.9120 ha        1 MOL      0.138514
    100 H44        -0.3340    5.9090    0.3290 ha        1 MOL      0.138514
    101 H45        -1.4490    7.7450   -0.5950 ho        1 MOL      0.334653
    102 N10        -1.9380    1.8040   -2.6180 n         1 MOL      0.119257
    103 C34        -3.2900    1.4920   -2.2000 c3        1 MOL     -0.247629
    104 C35        -3.5710    0.0400   -2.1110 c         1 MOL      0.277792
    105 O15        -4.2620   -0.4650   -1.1920 o         1 MOL     -0.421861
    106 C36        -4.3320    2.3310   -2.9730 c3        1 MOL      0.027077
    107 C37        -4.1460    3.8500   -2.8670 c3        1 MOL     -0.166987
    108 C38        -5.7830    1.9750   -2.6460 c3        1 MOL     -0.235553
    109 C39        -4.0690    4.5340   -1.5330 c3        1 MOL     -0.014458
    110 H46        -1.7960    2.1900   -3.5410 hn        1 MOL      0.152567
    111 H47        -3.3400    1.7180   -1.1300 h1        1 MOL      0.132358
    112 H48        -4.1500    2.1500   -4.0390 hc        1 MOL      0.010817
    113 H49        -4.9830    4.3720   -3.3330 hc        1 MOL      0.089894
    114 H50        -3.1790    4.0960   -3.2990 hc        1 MOL      0.089894
    115 H51        -6.4100    2.4100   -3.4260 hc        1 MOL      0.094705
    116 H52        -5.9710    0.8930   -2.6440 hc        1 MOL      0.094705
    117 H53        -6.0270    2.3890   -1.6720 hc        1 MOL      0.094705
    118 H54        -4.6720    4.0160   -0.7730 hc        1 MOL     -0.000783
    119 H55        -3.0200    4.4880   -1.2240 hc        1 MOL     -0.000783
    120 H56        -4.3920    5.5610   -1.7110 hc        1 MOL     -0.000783
    121 N11        -2.9880   -0.6890   -3.1100 n         1 MOL      0.028050
    122 C40        -3.2320   -2.1190   -3.2810 c3        1 MOL     -0.245763
    123 C41        -4.7180   -2.5300   -3.2070 c         1 MOL      0.338864
    124 O16        -5.0250   -3.6830   -2.8710 o         1 MOL     -0.458894
    125 C42        -2.5500   -2.7490   -4.5050 c3        1 MOL      0.215223
    126 O17        -1.3270   -2.0290   -4.7210 oh        1 MOL     -0.555888
    127 H57        -2.1630   -0.2740   -3.5110 hn        1 MOL      0.078391
    128 H58        -2.8100   -2.6910   -2.4530 h1        1 MOL      0.177258
    129 H59        -3.1240   -2.5890   -5.4180 h1        1 MOL      0.036398
    130 H60        -2.3790   -3.8280   -4.4290 h1        1 MOL      0.036398
    131 H61        -0.7410   -2.3850   -4.0430 ho        1 MOL      0.349219
    132 N12        -5.6090   -1.5920   -3.4350 n         1 MOL     -0.131153
    133 C43        -7.0470   -1.5360   -3.2310 c3        1 MOL      0.006185
    134 C44        -7.2900   -2.0710   -1.8010 c         1 MOL      0.610699
    135 O18        -7.5890   -3.2410   -1.6170 o         1 MOL     -0.514714
    136 C45        -7.7770   -2.3320   -4.3240 c3        1 MOL     -0.368839
    137 H62        -5.2420   -0.7350   -3.8290 hn        1 MOL      0.149111
    138 H63        -7.4560   -0.5240   -3.3100 h1        1 MOL      0.084467
    139 H64        -7.7960   -1.7660   -5.2520 hc        1 MOL      0.112026
    140 H65        -7.1560   -3.2120   -4.5270 hc        1 MOL      0.112026
    141 H66        -8.7950   -2.6540   -4.1100 hc        1 MOL      0.112026
    142 N13        -7.2530   -1.2370   -0.7660 n         1 MOL     -0.408946
    143 C46        -7.7140   -1.5620    0.5530 c3        1 MOL      0.036089
    144 C47        -8.2960   -0.4030    1.3400 c         1 MOL      0.522885
    145 O19        -7.7700    0.7230    1.2240 o         1 MOL     -0.487456
    146 C48        -6.5180   -2.1890    1.3470 c3        1 MOL     -0.059780
    147 H67        -6.9270   -0.2890   -0.9290 hn        1 MOL      0.120542
    148 H68        -8.4860   -2.3260    0.4110 h1        1 MOL      0.033459
    149 H69        -5.5910   -1.6570    1.1760 hc        1 MOL      0.025453
    150 H70        -6.6950   -2.2170    2.4220 hc        1 MOL      0.025453
    151 H71        -6.4060   -3.2240    1.0090 hc        1 MOL      0.025453
    152 N14        -9.3090   -0.5850    2.1400 n         1 MOL     -0.379487
    153 C49       -10.1140    0.3770    2.8860 c3        1 MOL     -0.042748
    154 C50       -10.5800    1.5870    2.0130 c         1 MOL      0.401779
    155 O20       -10.3620    2.6930    2.4610 o         1 MOL     -0.478022
    156 C51        -9.3810    0.8520    4.1920 c3        1 MOL      0.371739
    157 C52        -8.8390   -0.2660    5.0860 c3        1 MOL     -0.401012
    158 C53        -8.0200    0.3800    6.2710 c         1 MOL      0.698504
    159 O21        -8.4930    1.3730    6.8870 o         1 MOL     -0.676524
    160 O22        -6.8820   -0.1600    6.6430 o         1 MOL     -0.676524
    161 H72        -9.5570   -1.5710    2.1350 hn        1 MOL      0.261924
    162 H73       -11.0430   -0.0900    3.2280 h1        1 MOL      0.048626
    163 H74       -10.0600    1.4740    4.7750 hc        1 MOL     -0.036473
    164 H75        -8.5140    1.4430    3.9040 hc        1 MOL     -0.036473
    165 H76        -8.3110   -0.9500    4.4250 hc        1 MOL      0.056295
    166 H77        -9.6350   -0.8300    5.5750 hc        1 MOL      0.056295
    167 N15       -10.9600    1.3310    0.7480 n         1 MOL     -0.300981
    168 C54       -11.1430    2.3600   -0.2800 c3        1 MOL     -0.016618
    169 H78       -10.9300    3.3410    0.1450 h1        1 MOL      0.052795
    170 H79       -10.4650    2.1690   -1.1110 h1        1 MOL      0.052795
    171 H80       -12.1730    2.3370   -0.6390 h1        1 MOL      0.052795
    172 H81       -11.1300    0.3750    0.4390 hn        1 MOL      0.218548
    173 Ca1        -0.5120    0.3210    1.8080 Ca        1 MOL      1.787426
    174 O23         0.6280    1.6140    3.8970 oh        1 MOL     -0.878692
    175 H82         0.5150    1.6020    4.8470 ho        1 MOL      0.433245
    176 H83         1.2160    2.3520    3.7410 ho        1 MOL      0.433245
    177 O24        -1.6210    2.7850    1.7150 oh        1 MOL     -0.878692
    178 H84        -1.3470    3.5730    2.1830 ho        1 MOL      0.433245
    179 H85        -2.5400    2.9500    1.4980 ho        1 MOL      0.433245
    180 O25        -2.1870    0.3600    3.9060 oh        1 MOL     -0.878692
    181 H86        -2.8700    0.9890    4.1300 ho        1 MOL      0.433245
    182 H87        -2.0280   -0.1320    4.7150 ho        1 MOL      0.433245
    183 O26        -3.0490   -0.1260    1.2660 oh        1 MOL     -0.878692
    184 H88        -3.7140    0.4450    1.6520 ho        1 MOL      0.433245
    185 H89        -3.4060   -0.3640    0.4110 ho        1 MOL      0.433245
    186 O27         0.5210   -1.5010    3.3960 oh        1 MOL     -0.878692
    187 H90         0.3640   -2.4170    3.6100 ho        1 MOL      0.433245
    188 H91         0.6170   -1.0720    4.2550 ho        1 MOL      0.433245
@<TRIPOS>BOND
     1    1    2 1   
     2    1    4 1   
     3    1    5 1   
     4    1    6 1   
     5    2    3 2   
     6    2    7 1   
     7    7    8 1   
     8    7   15 1   
     9    8    9 1   
    10    8   11 1   
    11    8   16 1   
    12    9   10 2   
    13    9   19 1   
    14   11   12 1   
    15   11   17 1   
    16   11   18 1   
    17   12   13 1   
    18   12   14 1   
    19   19   20 1   
    20   19   28 1   
    21   20   21 1   
    22   20   23 1   
    23   20   29 1   
    24   21   22 2   
    25   21   41 1   
    26   23   24 1   
    27   23   30 1   
    28   23   31 1   
    29   24   25 1   
    30   24   32 1   
    31   24   33 1   
    32   25   26 1   
    33   25   34 1   
    34   25   35 1   
    35   26   27 1   
    36   26   36 1   
    37   26   37 1   
    38   27   38 1   
    39   27   39 1   
    40   27   40 1   
    41   41   42 1   
    42   41   49 1   
    43   42   43 1   
    44   42   45 1   
    45   42   50 1   
    46   43   44 2   
    47   43   53 1   
    48   45   46 1   
    49   45   51 1   
    50   45   52 1   
    51   46   47 1   
    52   46   48 1   
    53   53   54 1   
    54   53   57 1   
    55   54   55 1   
    56   54   58 1   
    57   54   59 1   
    58   55   56 2   
    59   55   60 1   
    60   60   61 1   
    61   60   68 1   
    62   61   62 1   
    63   61   64 1   
    64   61   69 1   
    65   62   63 2   
    66   62   74 1   
    67   64   65 1   
    68   64   70 1   
    69   64   71 1   
    70   65   66 1   
    71   65   67 2   
    72   66   72 1   
    73   66   73 1   
    74   74   75 1   
    75   74   78 1   
    76   75   76 1   
    77   75   79 1   
    78   75   80 1   
    79   76   77 2   
    80   76   81 1   
    81   81   82 1   
    82   81   93 1   
    83   82   83 1   
    84   82   85 1   
    85   82   94 1   
    86   83   84 2   
    87   83  102 1   
    88   85   86 1   
    89   85   95 1   
    90   85   96 1   
    91   86   87 ar  
    92   86   88 ar  
    93   87   89 ar  
    94   87   97 1   
    95   88   90 ar  
    96   88   98 1   
    97   89   91 ar  
    98   89   99 1   
    99   90   91 ar  
   100   90  100 1   
   101   91   92 1   
   102   92  101 1   
   103  102  103 1   
   104  102  110 1   
   105  103  104 1   
   106  103  106 1   
   107  103  111 1   
   108  104  105 2   
   109  104  121 1   
   110  106  107 1   
   111  106  108 1   
   112  106  112 1   
   113  107  109 1   
   114  107  113 1   
   115  107  114 1   
   116  108  115 1   
   117  108  116 1   
   118  108  117 1   
   119  109  118 1   
   120  109  119 1   
   121  109  120 1   
   122  121  122 1   
   123  121  127 1   
   124  122  123 1   
   125  122  125 1   
   126  122  128 1   
   127  123  124 2   
   128  123  132 1   
   129  125  126 1   
   130  125  129 1   
   131  125  130 1   
   132  126  131 1   
   133  132  133 1   
   134  132  137 1   
   135  133  134 1   
   136  133  136 1   
   137  133  138 1   
   138  134  135 2   
   139  134  142 1   
   140  136  139 1   
   141  136  140 1   
   142  136  141 1   
   143  142  143 1   
   144  142  147 1   
   145  143  144 1   
   146  143  146 1   
   147  143  148 1   
   148  144  145 2   
   149  144  152 1   
   150  146  149 1   
   151  146  150 1   
   152  146  151 1   
   153  152  153 1   
   154  152  161 1   
   155  153  154 1   
   156  153  156 1   
   157  153  162 1   
   158  154  155 2   
   159  154  167 1   
   160  156  157 1   
   161  156  163 1   
   162  156  164 1   
   163  157  158 1   
   164  157  165 1   
   165  157  166 1   
   166  158  159 1   
   167  158  160 1   
   168  167  168 1   
   169  167  172 1   
   170  168  169 1   
   171  168  170 1   
   172  168  171 1   
   173  174  175 1   
   174  174  176 1   
   175  177  178 1   
   176  177  179 1   
   177  180  181 1   
   178  180  182 1   
   179  183  184 1   
   180  183  185 1   
   181  186  187 1   
   182  186  188 1   
@<TRIPOS>SUBSTRUCTURE
     1 MOL         1 TEMP              0 ****  ****    0 ROOT
