@<TRIPOS>MOLECULE
MOL
  191   184     1     0     0
SMALL
resp


@<TRIPOS>ATOM
      1 C1         -6.0910   -1.8080    4.2270 c3        1 MOL     -0.364435
      2 C2         -6.0620   -1.9020    2.7150 c         1 MOL      0.768891
      3 O1         -5.4130   -1.1530    2.0190 o         1 MOL     -0.620947
      4 H1         -6.7970   -1.0340    4.5280 hc        1 MOL      0.093896
      5 H2         -6.4010   -2.7650    4.6450 hc        1 MOL      0.093896
      6 H3         -5.0970   -1.5540    4.5940 hc        1 MOL      0.093896
      7 N1         -6.8630   -2.7340    2.0710 n         1 MOL     -0.669671
      8 C3         -7.1710   -2.7200    0.6070 c3        1 MOL      0.104572
      9 C4         -7.7700   -1.5070   -0.1450 c         1 MOL      0.404663
     10 O2         -8.3070   -1.6820   -1.2100 o         1 MOL     -0.433989
     11 C5         -5.9640   -3.2890   -0.2070 c3        1 MOL     -0.006425
     12 C6         -6.4770   -4.2860   -1.2490 c         1 MOL      0.635848
     13 O3         -6.6000   -3.8640   -2.4110 o         1 MOL     -0.651559
     14 O4         -6.8510   -5.4080   -0.8120 o         1 MOL     -0.651559
     15 H4         -7.4270   -3.4170    2.5640 hn        1 MOL      0.337858
     16 H5         -7.9580   -3.4760    0.5360 h1        1 MOL      0.062066
     17 H6         -5.1960   -3.8200    0.3460 hc        1 MOL      0.017867
     18 H7         -5.4800   -2.4290   -0.6680 hc        1 MOL      0.017867
     19 N2         -7.6130   -0.3210    0.4740 n         1 MOL     -0.395835
     20 C7         -7.9250    1.0270   -0.0580 c3        1 MOL      0.159745
     21 C8         -6.6930    1.9410   -0.3000 c         1 MOL      0.574554
     22 O5         -6.7670    2.9010   -1.0290 o         1 MOL     -0.605728
     23 C9         -9.0620    1.7430    0.7460 c3        1 MOL     -0.125428
     24 C10        -9.5960    3.0850    0.2390 c3        1 MOL      0.106632
     25 C11       -10.8210    3.6400    0.9650 c3        1 MOL     -0.140455
     26 C12       -12.0790    2.8670    0.6180 c3        1 MOL     -0.101295
     27 N3        -12.5490    3.2590   -0.7630 n4        1 MOL     -0.095077
     28 H8         -7.3620   -0.4480    1.4490 hn        1 MOL      0.218812
     29 H9         -8.3360    0.8470   -1.0520 h1        1 MOL      0.081087
     30 H10        -8.8520    1.8600    1.8080 hc        1 MOL      0.032933
     31 H11        -9.7780    0.9160    0.6530 hc        1 MOL      0.032933
     32 H12        -9.8420    2.9070   -0.8090 hc        1 MOL      0.003042
     33 H13        -8.8420    3.8740    0.2080 hc        1 MOL      0.003042
     34 H14       -10.9760    4.7120    0.8460 hc        1 MOL      0.078964
     35 H15       -10.7070    3.5670    2.0390 hc        1 MOL      0.078964
     36 H16       -12.8400    3.0660    1.3600 hx        1 MOL      0.111887
     37 H17       -11.9100    1.7890    0.6800 hx        1 MOL      0.111887
     38 H18       -13.3820    2.7540   -1.0340 hn        1 MOL      0.218643
     39 H19       -12.8660    4.2150   -0.6620 hn        1 MOL      0.218643
     40 H20       -11.8610    3.2490   -1.4970 hn        1 MOL      0.218643
     41 N4         -5.4820    1.5280    0.0340 n         1 MOL     -0.481634
     42 C13        -4.2510    2.2040   -0.3880 c3        1 MOL      0.030557
     43 C14        -3.9770    2.1200   -1.8650 c         1 MOL      0.634894
     44 O6         -4.1690    1.0270   -2.4640 o         1 MOL     -0.500352
     45 C15        -3.1060    1.6250    0.4270 c3        1 MOL     -0.057921
     46 C16        -1.8300    2.4130    0.4070 c         1 MOL      0.673146
     47 O7         -0.9460    2.2440   -0.4290 o         1 MOL     -0.754440
     48 O8         -1.7230    3.2820    1.3190 o         1 MOL     -0.754440
     49 H21        -5.3980    0.6610    0.5500 hn        1 MOL      0.280446
     50 H22        -4.3550    3.2610   -0.1180 h1        1 MOL      0.045122
     51 H23        -2.9640    0.6730   -0.0920 hc        1 MOL      0.037994
     52 H24        -3.4370    1.4790    1.4530 hc        1 MOL      0.037994
     53 N5         -3.2940    3.1220   -2.3950 n         1 MOL     -0.474593
     54 C17        -2.7420    3.1570   -3.7790 c3        1 MOL      0.011384
     55 C18        -1.7650    2.0640   -4.2250 c         1 MOL      0.458688
     56 O9         -1.7670    1.6260   -5.3690 o         1 MOL     -0.512472
     57 H25        -3.2040    3.9270   -1.7950 hn        1 MOL      0.260180
     58 H26        -2.1720    4.0800   -3.9320 h1        1 MOL      0.065174
     59 H27        -3.4870    3.2140   -4.5770 h1        1 MOL      0.065174
     60 N6         -0.9160    1.6370   -3.3030 n         1 MOL     -0.384888
     61 C19        -0.0700    0.4190   -3.4090 c3        1 MOL     -0.045501
     62 C20        -0.8300   -0.9380   -3.2600 c         1 MOL      0.462502
     63 O10        -0.1150   -1.9330   -3.2930 o         1 MOL     -0.473920
     64 C21         1.1230    0.4460   -2.3750 c3        1 MOL     -0.155877
     65 C22         1.9730    1.6740   -2.4210 c         1 MOL      0.566528
     66 N7          2.7350    1.8620   -3.4680 n         1 MOL     -0.647813
     67 O11         1.9310    2.5500   -1.5210 o         1 MOL     -0.685840
     68 H28        -0.8100    2.1410   -2.4310 hn        1 MOL      0.276268
     69 H29         0.4330    0.4770   -4.3760 h1        1 MOL      0.091802
     70 H30         1.7550   -0.3960   -2.6370 hc        1 MOL      0.144774
     71 H31         0.7270    0.3230   -1.3660 hc        1 MOL      0.144774
     72 H32         2.8200    1.1260   -4.1670 hn        1 MOL      0.345039
     73 H33         3.0510    2.8090   -3.5830 hn        1 MOL      0.345039
     74 N8         -2.2240   -1.0800   -3.1770 n         1 MOL     -0.330706
     75 C23        -2.8220   -2.3770   -2.7960 c3        1 MOL     -0.121154
     76 C24        -2.5670   -2.9340   -1.4370 c         1 MOL      0.403959
     77 O12        -2.8720   -4.1050   -1.2610 o         1 MOL     -0.502676
     78 H34        -2.7870   -0.2540   -3.3060 hn        1 MOL      0.273528
     79 H35        -2.5840   -3.1680   -3.4980 h1        1 MOL      0.132351
     80 H36        -3.9110   -2.3000   -2.7840 h1        1 MOL      0.132351
     81 N9         -1.9150   -2.2000   -0.5530 n         1 MOL     -0.235057
     82 C25        -1.4710   -2.7430    0.7660 c3        1 MOL     -0.044281
     83 C26        -0.0990   -2.0750    0.9890 c         1 MOL      0.366712
     84 O13        -0.0040   -0.8740    0.7360 o         1 MOL     -0.452208
     85 C27        -2.4740   -2.4060    1.8160 c3        1 MOL     -0.242357
     86 C28        -1.8660   -2.5970    3.2120 ca        1 MOL      0.010119
     87 C29        -1.3770   -3.8100    3.7550 ca        1 MOL     -0.109843
     88 C30        -1.9240   -1.4700    4.0120 ca        1 MOL     -0.109843
     89 C31        -0.8500   -3.8210    5.0430 ca        1 MOL     -0.273729
     90 C32        -1.2920   -1.4440    5.2550 ca        1 MOL     -0.273729
     91 C33        -0.7880   -2.6320    5.8310 ca        1 MOL      0.347159
     92 O14        -0.2870   -2.6000    7.0760 oh        1 MOL     -0.477424
     93 H37        -1.5820   -1.3120   -0.8900 hn        1 MOL      0.210702
     94 H38        -1.3270   -3.8230    0.7370 h1        1 MOL      0.091697
     95 H39        -3.3740   -3.0160    1.7750 hc        1 MOL      0.147651
     96 H40        -2.9410   -1.4510    1.5780 hc        1 MOL      0.147651
     97 H41        -1.3400   -4.7120    3.1540 ha        1 MOL      0.126043
     98 H42        -2.2580   -0.5350    3.5920 ha        1 MOL      0.126043
     99 H43        -0.4530   -4.7310    5.4720 ha        1 MOL      0.144092
    100 H44        -1.1780   -0.5490    5.8420 ha        1 MOL      0.144092
    101 H45        -0.3090   -1.7070    7.4200 ho        1 MOL      0.362505
    102 N10         0.9790   -2.8160    1.3190 n         1 MOL     -0.238977
    103 C34         2.4280   -2.3700    1.1380 c3        1 MOL      0.128468
    104 C35         2.9420   -2.3090   -0.3360 c         1 MOL      0.174558
    105 O15         3.6430   -1.3710   -0.7530 o         1 MOL     -0.432372
    106 C36         3.2580   -3.3340    2.0420 c3        1 MOL      0.197503
    107 C37         2.8070   -3.4710    3.4970 c3        1 MOL     -0.038313
    108 C38         4.7450   -2.8860    2.0390 c3        1 MOL     -0.217267
    109 C39         2.8910   -2.2740    4.5200 c3        1 MOL     -0.128642
    110 H46         0.8250   -3.8060    1.3810 hn        1 MOL      0.218567
    111 H47         2.6020   -1.3750    1.5560 h1        1 MOL     -0.000394
    112 H48         3.1480   -4.3120    1.5700 hc        1 MOL     -0.062717
    113 H49         3.3940   -4.3350    3.8120 hc        1 MOL      0.020408
    114 H50         1.7810   -3.8290    3.4630 hc        1 MOL      0.020408
    115 H51         4.8550   -1.8520    2.3750 hc        1 MOL      0.057584
    116 H52         5.3640   -3.5520    2.6240 hc        1 MOL      0.057584
    117 H53         5.0960   -2.9450    1.0060 hc        1 MOL      0.057584
    118 H54         2.6050   -2.6040    5.5070 hc        1 MOL      0.037446
    119 H55         3.9310   -1.9310    4.5430 hc        1 MOL      0.037446
    120 H56         2.2400   -1.4510    4.2040 hc        1 MOL      0.037446
    121 N11         2.5190   -3.2660   -1.1710 n         1 MOL     -0.275591
    122 C40         2.9240   -3.4830   -2.5910 c3        1 MOL     -0.005660
    123 C41         4.4220   -3.2980   -2.9730 c         1 MOL      0.784980
    124 O16         4.7350   -2.8920   -4.0950 o         1 MOL     -0.575736
    125 C42         2.5300   -4.8810   -3.0810 c3        1 MOL      0.016082
    126 O17         3.3950   -5.8260   -2.4120 oh        1 MOL     -0.651207
    127 H57         1.7910   -3.8930   -0.8430 hn        1 MOL      0.272990
    128 H58         2.4160   -2.7140   -3.1610 h1        1 MOL     -0.006294
    129 H59         2.7470   -4.9310   -4.1450 h1        1 MOL      0.094936
    130 H60         1.4620   -5.0130   -2.8800 h1        1 MOL      0.094936
    131 H61         2.9850   -6.6940   -2.4940 ho        1 MOL      0.429671
    132 N12         5.2740   -3.6260   -1.9910 n         1 MOL     -0.453715
    133 C43         6.7430   -3.4270   -2.0280 c3        1 MOL      0.166552
    134 C44         7.1800   -1.9060   -2.0650 c         1 MOL      0.425112
    135 O18         8.3470   -1.6160   -2.3350 o         1 MOL     -0.533288
    136 C45         7.3760   -4.1900   -3.2500 c3        1 MOL     -0.534490
    137 H62         4.9430   -4.0650   -1.1490 hn        1 MOL      0.289556
    138 H63         7.1330   -3.8820   -1.1110 h1        1 MOL      0.070171
    139 H64         6.8720   -5.1390   -3.3630 hc        1 MOL      0.159001
    140 H65         7.0470   -3.6070   -4.1070 hc        1 MOL      0.159001
    141 H66         8.4380   -4.3200   -3.0750 hc        1 MOL      0.159001
    142 N13         6.2480   -0.9950   -1.7970 n         1 MOL     -0.234998
    143 C46         6.6510    0.4060   -1.6260 c3        1 MOL     -0.019542
    144 C47         7.1680    0.7250   -0.2780 c         1 MOL      0.566796
    145 O19         6.6920    0.1640    0.7030 o         1 MOL     -0.480728
    146 C48         5.4720    1.1720   -2.0580 c3        1 MOL     -0.016101
    147 H67         5.3080   -1.2940   -1.6170 hn        1 MOL      0.102768
    148 H68         7.4220    0.7310   -2.3270 h1        1 MOL      0.057089
    149 H69         5.6220    2.2290   -1.8540 hc        1 MOL      0.018604
    150 H70         5.2880    1.0670   -3.1300 hc        1 MOL      0.018604
    151 H71         4.5940    0.8220   -1.5280 hc        1 MOL      0.018604
    152 N14         8.1120    1.6420   -0.1890 n         1 MOL     -0.565309
    153 C49         8.5880    2.2160    1.0860 c3        1 MOL      0.182022
    154 C50         9.0240    1.1610    2.0730 c         1 MOL      0.528078
    155 O20         9.1350    1.4540    3.2350 o         1 MOL     -0.530035
    156 C51         7.7290    3.3210    1.7160 c3        1 MOL      0.308085
    157 C52         7.1680    4.3490    0.6840 c3        1 MOL     -0.154352
    158 C53         6.4390    5.5090    1.3760 c         1 MOL      0.747621
    159 O21         6.9030    6.6330    1.4750 o         1 MOL     -0.711770
    160 O22         5.3390    5.2920    1.9450 o         1 MOL     -0.711770
    161 H72         8.5970    1.9620   -1.0180 hn        1 MOL      0.305958
    162 H73         9.5500    2.7000    0.9080 h1        1 MOL      0.012491
    163 H74         8.3180    3.9000    2.4180 hc        1 MOL     -0.098039
    164 H75         6.8830    2.8390    2.2050 hc        1 MOL     -0.098039
    165 H76         6.4840    3.7820    0.0480 hc        1 MOL     -0.033834
    166 H77         7.8830    4.8330    0.0210 hc        1 MOL     -0.033834
    167 N15         9.5000   -0.0430    1.6570 n         1 MOL     -0.466490
    168 C54         9.7750   -1.2940    2.4920 c3        1 MOL     -0.039753
    169 H78        10.5370   -1.8980    2.0010 h1        1 MOL      0.071679
    170 H79        10.1250   -1.0010    3.4810 h1        1 MOL      0.071679
    171 H80         8.8580   -1.8760    2.5880 h1        1 MOL      0.071679
    172 H81         9.5160   -0.2110    0.6580 hn        1 MOL      0.250187
    173 Ca1         0.7980    3.7600    0.5100 Ca        1 MOL      1.989691
    174 O23         2.4330    5.5040   -0.7880 oh        1 MOL     -0.898891
    175 H82         3.1090    5.0430   -1.2870 ho        1 MOL      0.432768
    176 H83         2.2100    6.2570   -1.3400 ho        1 MOL      0.432768
    177 O24         3.3050    3.5980    1.4980 oh        1 MOL     -0.898891
    178 H84         3.7070    2.7300    1.6450 ho        1 MOL      0.432768
    179 H85         3.9280    4.2060    1.8870 ho        1 MOL      0.432768
    180 O25        -0.5060    4.9550   -1.3950 oh        1 MOL     -0.898891
    181 H86        -1.4330    5.1900   -1.3820 ho        1 MOL      0.432768
    182 H87        -0.1670    5.3660   -2.1910 ho        1 MOL      0.432768
    183 O26         0.7290    3.8650    3.2710 oh        1 MOL     -0.898891
    184 H88         0.8930    4.8000    3.3990 ho        1 MOL      0.432768
    185 H89         0.4720    3.5470    4.1410 ho        1 MOL      0.432768
    186 O27         1.3700    1.3660    1.2750 oh        1 MOL     -0.898891
    187 H90         2.2470    1.0340    1.4610 ho        1 MOL      0.432768
    188 H91         0.8230    0.5690    1.2270 ho        1 MOL      0.432768
    189 O28         0.2750    6.2250    1.3610 oh        1 MOL     -0.898891
    190 H92         0.9510    6.8660    1.5770 ho        1 MOL      0.432768
    191 H93        -0.4670    6.7470    1.0600 ho        1 MOL      0.432768
@<TRIPOS>BOND
     1    1    2 1   
     2    1    4 1   
     3    1    5 1   
     4    1    6 1   
     5    2    3 2   
     6    2    7 1   
     7    7    8 1   
     8    7   15 1   
     9    8    9 1   
    10    8   11 1   
    11    8   16 1   
    12    9   10 2   
    13    9   19 1   
    14   11   12 1   
    15   11   17 1   
    16   11   18 1   
    17   12   13 1   
    18   12   14 1   
    19   19   20 1   
    20   19   28 1   
    21   20   21 1   
    22   20   23 1   
    23   20   29 1   
    24   21   22 2   
    25   21   41 1   
    26   23   24 1   
    27   23   30 1   
    28   23   31 1   
    29   24   25 1   
    30   24   32 1   
    31   24   33 1   
    32   25   26 1   
    33   25   34 1   
    34   25   35 1   
    35   26   27 1   
    36   26   36 1   
    37   26   37 1   
    38   27   38 1   
    39   27   39 1   
    40   27   40 1   
    41   41   42 1   
    42   41   49 1   
    43   42   43 1   
    44   42   45 1   
    45   42   50 1   
    46   43   44 2   
    47   43   53 1   
    48   45   46 1   
    49   45   51 1   
    50   45   52 1   
    51   46   47 1   
    52   46   48 1   
    53   53   54 1   
    54   53   57 1   
    55   54   55 1   
    56   54   58 1   
    57   54   59 1   
    58   55   56 2   
    59   55   60 1   
    60   60   61 1   
    61   60   68 1   
    62   61   62 1   
    63   61   64 1   
    64   61   69 1   
    65   62   63 2   
    66   62   74 1   
    67   64   65 1   
    68   64   70 1   
    69   64   71 1   
    70   65   66 1   
    71   65   67 2   
    72   66   72 1   
    73   66   73 1   
    74   74   75 1   
    75   74   78 1   
    76   75   76 1   
    77   75   79 1   
    78   75   80 1   
    79   76   77 2   
    80   76   81 1   
    81   81   82 1   
    82   81   93 1   
    83   82   83 1   
    84   82   85 1   
    85   82   94 1   
    86   83   84 2   
    87   83  102 1   
    88   85   86 1   
    89   85   95 1   
    90   85   96 1   
    91   86   87 ar  
    92   86   88 ar  
    93   87   89 ar  
    94   87   97 1   
    95   88   90 ar  
    96   88   98 1   
    97   89   91 ar  
    98   89   99 1   
    99   90   91 ar  
   100   90  100 1   
   101   91   92 1   
   102   92  101 1   
   103  102  103 1   
   104  102  110 1   
   105  103  104 1   
   106  103  106 1   
   107  103  111 1   
   108  104  105 2   
   109  104  121 1   
   110  106  107 1   
   111  106  108 1   
   112  106  112 1   
   113  107  109 1   
   114  107  113 1   
   115  107  114 1   
   116  108  115 1   
   117  108  116 1   
   118  108  117 1   
   119  109  118 1   
   120  109  119 1   
   121  109  120 1   
   122  121  122 1   
   123  121  127 1   
   124  122  123 1   
   125  122  125 1   
   126  122  128 1   
   127  123  124 2   
   128  123  132 1   
   129  125  126 1   
   130  125  129 1   
   131  125  130 1   
   132  126  131 1   
   133  132  133 1   
   134  132  137 1   
   135  133  134 1   
   136  133  136 1   
   137  133  138 1   
   138  134  135 2   
   139  134  142 1   
   140  136  139 1   
   141  136  140 1   
   142  136  141 1   
   143  142  143 1   
   144  142  147 1   
   145  143  144 1   
   146  143  146 1   
   147  143  148 1   
   148  144  145 2   
   149  144  152 1   
   150  146  149 1   
   151  146  150 1   
   152  146  151 1   
   153  152  153 1   
   154  152  161 1   
   155  153  154 1   
   156  153  156 1   
   157  153  162 1   
   158  154  155 2   
   159  154  167 1   
   160  156  157 1   
   161  156  163 1   
   162  156  164 1   
   163  157  158 1   
   164  157  165 1   
   165  157  166 1   
   166  158  159 1   
   167  158  160 1   
   168  167  168 1   
   169  167  172 1   
   170  168  169 1   
   171  168  170 1   
   172  168  171 1   
   173  174  175 1   
   174  174  176 1   
   175  177  178 1   
   176  177  179 1   
   177  180  181 1   
   178  180  182 1   
   179  183  184 1   
   180  183  185 1   
   181  186  187 1   
   182  186  188 1   
   183  189  190 1   
   184  189  191 1   
@<TRIPOS>SUBSTRUCTURE
     1 MOL         1 TEMP              0 ****  ****    0 ROOT
