@<TRIPOS>MOLECULE
MOL
  198   191     1     0     0
SMALL
resp


@<TRIPOS>ATOM
      1 C1          2.8220    1.4080   -4.7240 c3        1 MOL     -0.335188
      2 C2          3.9350    0.4830   -4.3020 c         1 MOL      0.768849
      3 O1          3.8980   -0.7150   -4.5420 o         1 MOL     -0.618693
      4 H1          2.3280    1.8090   -3.8390 hc        1 MOL      0.097616
      5 H2          3.2340    2.2290   -5.3120 hc        1 MOL      0.097616
      6 H3          2.0980    0.8580   -5.3240 hc        1 MOL      0.097616
      7 N1          4.9890    0.9710   -3.5640 n         1 MOL     -0.805022
      8 C3          6.0780    0.0620   -3.1070 c3        1 MOL      0.633315
      9 C4          5.9260   -0.3190   -1.6080 c         1 MOL      0.197605
     10 O2          5.0600    0.2550   -0.9410 o         1 MOL     -0.427404
     11 C5          7.4780    0.7420   -3.2630 c3        1 MOL     -0.652683
     12 C6          7.5650    1.9220   -2.3210 c         1 MOL      0.936239
     13 O3          7.4620    3.1220   -2.7410 o         1 MOL     -0.758094
     14 O4          7.9730    1.7030   -1.1690 o         1 MOL     -0.758094
     15 H4          4.8620    1.9350   -3.3020 hn        1 MOL      0.372164
     16 H5          6.0910   -0.7980   -3.7720 h1        1 MOL      0.007124
     17 H6          7.6700    0.9990   -4.3080 hc        1 MOL      0.133751
     18 H7          8.2600    0.0170   -3.0400 hc        1 MOL      0.133751
     19 N2          6.6990   -1.3160   -1.1560 n         1 MOL     -0.606709
     20 C7          6.5220   -1.9620    0.1660 c3        1 MOL      0.012479
     21 C8          6.7100   -1.1130    1.4860 c         1 MOL      0.280739
     22 O5          6.9160   -1.6280    2.5900 o         1 MOL     -0.511184
     23 C9          7.1370   -3.3130    0.1890 c3        1 MOL      0.026492
     24 C10         8.6250   -3.2420   -0.0510 c3        1 MOL      0.108125
     25 C11         9.2550   -4.6580    0.1180 c3        1 MOL     -0.186559
     26 C12        10.6580   -4.8290   -0.6360 c3        1 MOL      0.073252
     27 N3         11.7350   -4.1580    0.0820 n4        1 MOL     -0.351430
     28 H8          7.1960   -1.7300   -1.9290 hn        1 MOL      0.312613
     29 H9          5.4590   -2.1590    0.2210 h1        1 MOL      0.170748
     30 H10         6.5950   -3.9030   -0.5390 hc        1 MOL      0.005120
     31 H11         6.8480   -3.7730    1.1320 hc        1 MOL      0.005120
     32 H12         9.1340   -2.6210    0.6850 hc        1 MOL      0.046930
     33 H13         8.8600   -2.8830   -1.0440 hc        1 MOL      0.046930
     34 H14         8.5350   -5.3520   -0.3130 hc        1 MOL      0.078073
     35 H15         9.4410   -4.7900    1.1810 hc        1 MOL      0.078073
     36 H16        10.4410   -4.4480   -1.6300 hx        1 MOL      0.052852
     37 H17        10.9780   -5.8690   -0.7790 hx        1 MOL      0.052852
     38 H18        12.6430   -4.5500   -0.1240 hn        1 MOL      0.295828
     39 H19        11.7850   -3.1590   -0.0800 hn        1 MOL      0.295828
     40 H20        11.7160   -4.3910    1.0640 hn        1 MOL      0.295828
     41 N4          6.6580    0.2270    1.3990 n         1 MOL     -0.005612
     42 C13         6.4210    1.2720    2.4460 c3        1 MOL     -0.023308
     43 C14         5.6550    2.4630    1.7170 c         1 MOL      0.818106
     44 O6          6.2530    3.1150    0.8710 o         1 MOL     -0.780004
     45 C15         7.7040    1.6930    3.1770 c3        1 MOL     -0.256038
     46 C16         8.9830    1.8010    2.3960 c         1 MOL      0.703083
     47 O7          9.6860    0.8530    2.1810 o         1 MOL     -0.709195
     48 O8          9.2430    2.8230    1.7650 o         1 MOL     -0.709195
     49 H21         6.4980    0.4560    0.4280 hn        1 MOL      0.289205
     50 H22         5.7530    0.8880    3.2170 h1        1 MOL      0.086430
     51 H23         7.8370    1.0510    4.0370 hc        1 MOL      0.048466
     52 H24         7.5330    2.6770    3.6230 hc        1 MOL      0.048466
     53 N5          4.3750    2.8530    1.9850 n         1 MOL     -0.615813
     54 C17         3.4240    2.2880    2.9500 c3        1 MOL      0.107382
     55 C18         3.2830    0.7380    2.8320 c         1 MOL      0.543509
     56 O9          3.5420    0.1190    1.7800 o         1 MOL     -0.561594
     57 H25         4.0100    3.5520    1.3510 hn        1 MOL      0.343380
     58 H26         2.4320    2.7310    2.9940 h1        1 MOL      0.046041
     59 H27         3.8040    2.5310    3.9440 h1        1 MOL      0.046041
     60 N6          2.8320    0.0520    3.8900 n         1 MOL     -0.428555
     61 C19         2.8310   -1.4120    3.9900 c3        1 MOL     -0.003966
     62 C20         1.6500   -2.0440    3.2440 c         1 MOL      0.435664
     63 O10         0.6000   -1.5530    3.1600 o         1 MOL     -0.368763
     64 C21         2.7760   -1.7790    5.4440 c3        1 MOL     -0.010081
     65 C22         1.6170   -1.2150    6.2230 c         1 MOL      0.633931
     66 O11         0.7390   -2.0450    6.5380 o         1 MOL     -0.638403
     67 O12         1.5860    0.0060    6.5970 o         1 MOL     -0.638403
     68 H28         2.5420    0.4790    4.7540 hn        1 MOL      0.195056
     69 H29         3.7220   -1.9180    3.6010 h1        1 MOL      0.048453
     70 H30         3.7300   -1.6010    5.9450 hc        1 MOL     -0.003699
     71 H31         2.7030   -2.8650    5.4650 hc        1 MOL     -0.003699
     72 N7          1.8380   -3.3310    2.9040 n         1 MOL     -0.314818
     73 C23         0.8160   -4.1940    2.3270 c3        1 MOL     -0.228377
     74 C24         0.5370   -4.0220    0.8480 c         1 MOL      0.468599
     75 O13        -0.4990   -4.4880    0.3290 o         1 MOL     -0.533090
     76 H32         2.7890   -3.6670    2.8750 hn        1 MOL      0.245312
     77 H33        -0.1530   -4.1280    2.8300 h1        1 MOL      0.145418
     78 H34         1.1680   -5.1930    2.5910 h1        1 MOL      0.145418
     79 N8          1.5020   -3.3750    0.1050 n         1 MOL     -0.269767
     80 C25         1.4320   -3.2020   -1.3210 c3        1 MOL     -0.108602
     81 C26         0.4620   -2.1000   -1.8190 c         1 MOL      0.191138
     82 O14         0.5810   -0.9460   -1.4230 o         1 MOL     -0.431697
     83 C27         2.7740   -2.8410   -1.9590 c3        1 MOL      0.443646
     84 C28         3.8120   -3.9180   -1.6480 c3        1 MOL     -0.384833
     85 O15         2.5890   -2.9310   -3.3880 oh        1 MOL     -0.608256
     86 H35         2.3630   -3.0550    0.5370 hn        1 MOL      0.215899
     87 H36         1.1540   -4.1440   -1.7770 h1        1 MOL      0.106147
     88 H37         3.2470   -1.8930   -1.7020 h1        1 MOL      0.050130
     89 H38         2.9750   -2.0870   -3.6630 ho        1 MOL      0.396470
     90 H39         3.4840   -4.9010   -1.9650 hc        1 MOL      0.081587
     91 H40         4.6460   -3.6460   -2.2880 hc        1 MOL      0.081587
     92 H41         3.9010   -3.8830   -0.5580 hc        1 MOL      0.081587
     93 N9         -0.4590   -2.4790   -2.6840 n         1 MOL     -0.107692
     94 C29        -1.4370   -1.5510   -3.3560 c3        1 MOL     -0.086752
     95 C30        -2.4080   -1.0240   -2.2750 c         1 MOL      0.427938
     96 O16        -2.5120    0.1430   -1.9710 o         1 MOL     -0.494997
     97 C31        -2.2100   -2.2980   -4.4730 c3        1 MOL      0.268748
     98 C32        -1.3790   -3.0300   -5.5510 c3        1 MOL     -0.132375
     99 C33        -3.2450   -1.4880   -5.2390 c3        1 MOL     -0.308669
    100 C34        -0.1790   -2.1620   -6.0830 c3        1 MOL     -0.079266
    101 H42        -0.6210   -3.4770   -2.7600 hn        1 MOL      0.224844
    102 H43        -0.8730   -0.7650   -3.8470 h1        1 MOL      0.106384
    103 H44        -2.7890   -3.1510   -4.1170 hc        1 MOL     -0.024913
    104 H45        -2.0050   -3.2790   -6.4070 hc        1 MOL      0.028769
    105 H46        -1.0060   -3.9260   -5.0430 hc        1 MOL      0.028769
    106 H47        -4.0290   -1.1680   -4.5550 hc        1 MOL      0.075390
    107 H48        -2.7470   -0.5790   -5.6100 hc        1 MOL      0.075390
    108 H49        -3.8750   -1.9750   -5.9770 hc        1 MOL      0.075390
    109 H50        -0.5570   -1.1580   -6.2810 hc        1 MOL      0.019709
    110 H51         0.6120   -2.1990   -5.3270 hc        1 MOL      0.019709
    111 H52         0.2400   -2.5480   -7.0140 hc        1 MOL      0.019709
    112 N10        -3.0110   -2.0180   -1.5860 n         1 MOL     -0.338575
    113 C35        -3.8760   -1.6690   -0.4590 c3        1 MOL     -0.143128
    114 C36        -5.1240   -2.6070   -0.5460 c         1 MOL      0.627427
    115 O17        -5.0080   -3.7040   -1.1100 o         1 MOL     -0.528470
    116 C37        -3.2000   -1.7550    0.9090 c3        1 MOL      0.423151
    117 C38        -1.9000   -0.8990    1.1320 c3        1 MOL     -0.373172
    118 O18        -3.9830   -1.2880    1.9400 oh        1 MOL     -0.643472
    119 H53        -2.9310   -2.9630   -1.9350 hn        1 MOL      0.224427
    120 H54        -4.3670   -0.7050   -0.6060 h1        1 MOL      0.098714
    121 H55        -2.8490   -2.7630    1.1500 h1        1 MOL      0.040100
    122 H56        -4.0330   -0.3320    1.9090 ho        1 MOL      0.395815
    123 H57        -2.0650    0.1100    0.7740 hc        1 MOL      0.114500
    124 H58        -1.4860   -1.0220    2.1370 hc        1 MOL      0.114500
    125 H59        -1.1120   -1.3600    0.5200 hc        1 MOL      0.114500
    126 N11        -6.2710   -2.2480    0.0970 n         1 MOL     -0.637714
    127 C39        -7.4980   -3.0960    0.0970 c3        1 MOL      0.048458
    128 C40        -8.8120   -2.3620   -0.1690 c         1 MOL      0.612415
    129 O19        -9.6760   -2.9320   -0.8640 o         1 MOL     -0.560329
    130 C41        -7.5240   -3.8050    1.4880 c3        1 MOL      0.304501
    131 C42        -8.6270   -4.9330    1.5150 c3        1 MOL     -0.274358
    132 O20        -7.8730   -2.9070    2.5350 oh        1 MOL     -0.603167
    133 H60        -6.3510   -1.3650    0.5830 hn        1 MOL      0.300595
    134 H61        -7.4150   -3.8730   -0.6680 h1        1 MOL      0.094140
    135 H62        -6.5800   -4.3380    1.6190 h1        1 MOL      0.055645
    136 H63        -7.1270   -2.8500    3.1360 ho        1 MOL      0.393257
    137 H64        -8.7130   -5.5520    2.4070 hc        1 MOL      0.064463
    138 H65        -9.6060   -4.5160    1.2870 hc        1 MOL      0.064463
    139 H66        -8.3170   -5.5680    0.6810 hc        1 MOL      0.064463
    140 N12        -9.0040   -1.1320    0.4430 n         1 MOL     -0.485881
    141 C43       -10.1070   -0.1500    0.2750 c3        1 MOL      0.042062
    142 C44        -9.6570    1.2040    0.7590 c         1 MOL      0.476183
    143 O21        -8.8760    1.3350    1.7270 o         1 MOL     -0.501023
    144 C45       -11.4390   -0.5710    0.9220 c3        1 MOL     -0.172070
    145 C46       -12.7370    0.0220    0.5120 c3        1 MOL      0.197303
    146 C47       -14.0880   -0.6100    1.0360 c3        1 MOL     -0.163110
    147 C48       -15.2290    0.3710    0.7610 c3        1 MOL     -0.088991
    148 N13       -15.7150    0.3790   -0.6890 n4        1 MOL     -0.292321
    149 H67        -8.3170   -0.8900    1.1390 hn        1 MOL      0.287288
    150 H68       -10.3520   -0.0680   -0.7850 h1        1 MOL      0.069478
    151 H69       -11.4020   -0.4590    1.9990 hc        1 MOL      0.100935
    152 H70       -11.4940   -1.6460    0.7090 hc        1 MOL      0.100935
    153 H71       -12.7730    0.0100   -0.5780 hc        1 MOL     -0.065377
    154 H72       -12.7380    1.0790    0.7890 hc        1 MOL     -0.065377
    155 H73       -13.8410   -0.7150    2.0880 hc        1 MOL      0.080046
    156 H74       -14.3410   -1.6150    0.6990 hc        1 MOL      0.080046
    157 H75       -14.9030    1.4070    0.9180 hx        1 MOL      0.145369
    158 H76       -16.0420    0.0960    1.4230 hx        1 MOL      0.145369
    159 H77       -14.8810    0.3930   -1.2600 hn        1 MOL      0.294314
    160 H78       -16.1320   -0.5240   -0.8540 hn        1 MOL      0.294314
    161 H79       -16.3200    1.1340   -0.9700 hn        1 MOL      0.294314
    162 N14        -9.9540    2.1940   -0.0380 n         1 MOL     -0.546196
    163 C49        -9.6850    3.5870    0.2580 c3        1 MOL      0.525911
    164 C50        -8.2740    4.0490    0.0670 c         1 MOL      0.294258
    165 O22        -7.6710    4.7940    0.8260 o         1 MOL     -0.498346
    166 C51       -10.6730    4.5510   -0.3610 c3        1 MOL     -0.135049
    167 C52       -12.0810    4.3140    0.1560 c3        1 MOL     -0.247799
    168 C53       -12.9590    5.5500   -0.0370 c         1 MOL      0.718994
    169 O23       -13.0460    6.3620    0.9650 o         1 MOL     -0.688989
    170 O24       -13.7390    5.6430   -0.9520 o         1 MOL     -0.688989
    171 H80       -10.4110    2.0100   -0.9160 hn        1 MOL      0.285628
    172 H81        -9.8490    3.7280    1.3280 h1        1 MOL     -0.000063
    173 H82       -10.7490    4.4700   -1.4420 hc        1 MOL      0.047575
    174 H83       -10.3480    5.5120    0.0360 hc        1 MOL      0.047575
    175 H84       -12.1220    3.9590    1.1920 hc        1 MOL      0.042206
    176 H85       -12.4420    3.4120   -0.3300 hc        1 MOL      0.042206
    177 N15        -7.5980    3.6470   -1.0370 n         1 MOL     -0.344908
    178 C54        -8.1920    3.2900   -2.3640 c3        1 MOL     -0.070419
    179 H86        -7.9550    2.2530   -2.6010 h1        1 MOL      0.050845
    180 H87        -9.2740    3.4150   -2.3240 h1        1 MOL      0.050845
    181 H88        -7.7790    3.9420   -3.1350 h1        1 MOL      0.050845
    182 H89        -6.5960    3.7690   -0.9570 hn        1 MOL      0.293340
    183 Ca1         8.3360    4.1290   -0.3090 Ca        1 MOL      1.688966
    184 O25         7.2310    6.1050    1.4650 oh        1 MOL     -0.786948
    185 H90         6.5650    5.7260    2.0410 ho        1 MOL      0.394041
    186 H91         6.8640    6.9380    1.1790 ho        1 MOL      0.394041
    187 O26         6.1060    5.4480   -1.1150 oh        1 MOL     -0.786948
    188 H92         5.7970    5.4510   -2.0160 ho        1 MOL      0.394041
    189 H93         5.7970    6.2780   -0.7420 ho        1 MOL      0.394041
    190 O27         9.1700    6.4370   -1.6300 oh        1 MOL     -0.786948
    191 H94         9.8710    6.9580   -1.2270 ho        1 MOL      0.394041
    192 H95         8.5420    7.0860   -1.9420 ho        1 MOL      0.394041
    193 O28        10.5360    3.5220   -1.6940 oh        1 MOL     -0.786948
    194 H96        10.9650    2.6600   -1.6480 ho        1 MOL      0.394041
    195 H97        10.6470    3.7890   -2.6010 ho        1 MOL      0.394041
    196 O29        10.2290    5.5270    0.9280 oh        1 MOL     -0.786948
    197 H98        10.4910    4.9260    1.6220 ho        1 MOL      0.394041
    198 H99        10.5490    6.3780    1.2140 ho        1 MOL      0.394041
@<TRIPOS>BOND
     1    1    2 1   
     2    1    4 1   
     3    1    5 1   
     4    1    6 1   
     5    2    3 2   
     6    2    7 1   
     7    7    8 1   
     8    7   15 1   
     9    8    9 1   
    10    8   11 1   
    11    8   16 1   
    12    9   10 2   
    13    9   19 1   
    14   11   12 1   
    15   11   17 1   
    16   11   18 1   
    17   12   13 1   
    18   12   14 1   
    19   19   20 1   
    20   19   28 1   
    21   20   21 1   
    22   20   23 1   
    23   20   29 1   
    24   21   22 2   
    25   21   41 1   
    26   23   24 1   
    27   23   30 1   
    28   23   31 1   
    29   24   25 1   
    30   24   32 1   
    31   24   33 1   
    32   25   26 1   
    33   25   34 1   
    34   25   35 1   
    35   26   27 1   
    36   26   36 1   
    37   26   37 1   
    38   27   38 1   
    39   27   39 1   
    40   27   40 1   
    41   41   42 1   
    42   41   49 1   
    43   42   43 1   
    44   42   45 1   
    45   42   50 1   
    46   43   44 2   
    47   43   53 1   
    48   45   46 1   
    49   45   51 1   
    50   45   52 1   
    51   46   47 1   
    52   46   48 1   
    53   53   54 1   
    54   53   57 1   
    55   54   55 1   
    56   54   58 1   
    57   54   59 1   
    58   55   56 2   
    59   55   60 1   
    60   60   61 1   
    61   60   68 1   
    62   61   62 1   
    63   61   64 1   
    64   61   69 1   
    65   62   63 2   
    66   62   72 1   
    67   64   65 1   
    68   64   70 1   
    69   64   71 1   
    70   65   66 1   
    71   65   67 1   
    72   72   73 1   
    73   72   76 1   
    74   73   74 1   
    75   73   77 1   
    76   73   78 1   
    77   74   75 2   
    78   74   79 1   
    79   79   80 1   
    80   79   86 1   
    81   80   81 1   
    82   80   83 1   
    83   80   87 1   
    84   81   82 2   
    85   81   93 1   
    86   83   84 1   
    87   83   85 1   
    88   83   88 1   
    89   84   90 1   
    90   84   91 1   
    91   84   92 1   
    92   85   89 1   
    93   93   94 1   
    94   93  101 1   
    95   94   95 1   
    96   94   97 1   
    97   94  102 1   
    98   95   96 2   
    99   95  112 1   
   100   97   98 1   
   101   97   99 1   
   102   97  103 1   
   103   98  100 1   
   104   98  104 1   
   105   98  105 1   
   106   99  106 1   
   107   99  107 1   
   108   99  108 1   
   109  100  109 1   
   110  100  110 1   
   111  100  111 1   
   112  112  113 1   
   113  112  119 1   
   114  113  114 1   
   115  113  116 1   
   116  113  120 1   
   117  114  115 2   
   118  114  126 1   
   119  116  117 1   
   120  116  118 1   
   121  116  121 1   
   122  117  123 1   
   123  117  124 1   
   124  117  125 1   
   125  118  122 1   
   126  126  127 1   
   127  126  133 1   
   128  127  128 1   
   129  127  130 1   
   130  127  134 1   
   131  128  129 2   
   132  128  140 1   
   133  130  131 1   
   134  130  132 1   
   135  130  135 1   
   136  131  137 1   
   137  131  138 1   
   138  131  139 1   
   139  132  136 1   
   140  140  141 1   
   141  140  149 1   
   142  141  142 1   
   143  141  144 1   
   144  141  150 1   
   145  142  143 2   
   146  142  162 1   
   147  144  145 1   
   148  144  151 1   
   149  144  152 1   
   150  145  146 1   
   151  145  153 1   
   152  145  154 1   
   153  146  147 1   
   154  146  155 1   
   155  146  156 1   
   156  147  148 1   
   157  147  157 1   
   158  147  158 1   
   159  148  159 1   
   160  148  160 1   
   161  148  161 1   
   162  162  163 1   
   163  162  171 1   
   164  163  164 1   
   165  163  166 1   
   166  163  172 1   
   167  164  165 2   
   168  164  177 1   
   169  166  167 1   
   170  166  173 1   
   171  166  174 1   
   172  167  168 1   
   173  167  175 1   
   174  167  176 1   
   175  168  169 1   
   176  168  170 1   
   177  177  178 1   
   178  177  182 1   
   179  178  179 1   
   180  178  180 1   
   181  178  181 1   
   182  184  185 1   
   183  184  186 1   
   184  187  188 1   
   185  187  189 1   
   186  190  191 1   
   187  190  192 1   
   188  193  194 1   
   189  193  195 1   
   190  196  197 1   
   191  196  198 1   
@<TRIPOS>SUBSTRUCTURE
     1 MOL         1 TEMP              0 ****  ****    0 ROOT
