@<TRIPOS>MOLECULE
MOL
  198   191     1     0     0
SMALL
resp


@<TRIPOS>ATOM
      1 C1          1.2930    4.8240    1.9300 c3        1 MOL     -0.338119
      2 C2          0.1710    4.7660    0.8370 c         1 MOL      0.784452
      3 O1         -0.6390    3.8100    0.7330 o         1 MOL     -0.565379
      4 H1          2.0860    5.4940    1.6010 hc        1 MOL      0.055089
      5 H2          0.8710    5.1940    2.8650 hc        1 MOL      0.055089
      6 H3          1.7020    3.8260    2.0850 hc        1 MOL      0.055089
      7 N1          0.0650    5.8520    0.0050 n         1 MOL     -0.434208
      8 C3         -0.8560    5.9290   -1.2170 c3        1 MOL      0.087748
      9 C4         -2.3510    5.7300   -0.8210 c         1 MOL      0.761298
     10 O2         -3.1340    5.2000   -1.6000 o         1 MOL     -0.550377
     11 C5         -0.4290    4.9750   -2.2600 c3        1 MOL     -0.646908
     12 C6          1.0830    4.9450   -2.6770 c         1 MOL      0.762916
     13 O3          1.6610    3.8820   -3.0050 o         1 MOL     -0.624328
     14 O4          1.7840    5.9930   -2.6270 o         1 MOL     -0.624328
     15 H4          0.8550    6.4910    0.0310 hn        1 MOL      0.215104
     16 H5         -0.7350    6.9190   -1.6680 h1        1 MOL      0.058488
     17 H6         -1.0060    5.1980   -3.1540 hc        1 MOL      0.182733
     18 H7         -0.6550    3.9480   -1.9950 hc        1 MOL      0.182733
     19 N2         -2.6800    6.2380    0.3960 n         1 MOL     -0.713398
     20 C7         -4.0400    6.0040    0.9580 c3        1 MOL      0.070185
     21 C8         -5.1530    6.6810    0.1900 c         1 MOL      0.542241
     22 O5         -5.0020    7.7150   -0.4430 o         1 MOL     -0.580156
     23 C9         -4.1510    6.2910    2.4880 c3        1 MOL      0.216301
     24 C10        -4.1550    7.8170    2.8710 c3        1 MOL      0.111330
     25 C11        -3.1740    5.5430    3.4140 c3        1 MOL     -0.326277
     26 C12        -5.0090    8.0780    4.1120 c3        1 MOL     -0.175963
     27 H8         -1.9580    6.7450    0.8770 hn        1 MOL      0.254922
     28 H9         -4.2370    4.9380    0.8310 h1        1 MOL      0.123818
     29 H10        -5.1800    6.0510    2.7580 hc        1 MOL      0.019539
     30 H11        -4.6270    8.3610    2.0530 hc        1 MOL     -0.024720
     31 H12        -3.1470    8.1910    3.0450 hc        1 MOL     -0.024720
     32 H13        -3.1410    5.9220    4.4260 hc        1 MOL      0.074985
     33 H14        -3.4490    4.4870    3.4160 hc        1 MOL      0.074985
     34 H15        -2.1610    5.6480    3.0200 hc        1 MOL      0.074985
     35 H16        -5.0940    9.1590    4.2460 hc        1 MOL      0.020095
     36 H17        -6.0290    7.7120    3.9370 hc        1 MOL      0.020095
     37 H18        -4.5170    7.6070    4.9650 hc        1 MOL      0.020095
     38 N3         -6.3560    6.1120    0.1080 n         1 MOL     -0.486107
     39 C13        -6.8010    4.8280    0.7080 c3        1 MOL      0.076152
     40 C14        -6.3330    3.5790   -0.0520 c         1 MOL      0.541547
     41 O6         -6.2490    2.5350    0.5290 o         1 MOL     -0.559548
     42 C15        -8.2640    4.7210    1.1030 c3        1 MOL     -0.239318
     43 C16        -9.2550    5.2010    0.0660 c         1 MOL      0.739627
     44 O7        -10.4670    5.0820    0.3800 o         1 MOL     -0.669434
     45 O8         -8.9330    5.5200   -1.0730 o         1 MOL     -0.669434
     46 H19        -6.9020    6.5640   -0.6150 hn        1 MOL      0.284356
     47 H20        -6.2680    4.7090    1.6490 h1        1 MOL     -0.005206
     48 H21        -8.4770    5.3060    1.9990 hc        1 MOL      0.067551
     49 H22        -8.5860    3.7270    1.4030 hc        1 MOL      0.067551
     50 N4         -5.9450    3.7750   -1.3250 n         1 MOL     -0.243113
     51 C17        -5.3670    2.7840   -2.2130 c3        1 MOL     -0.287515
     52 C18        -6.2330    1.6770   -2.7290 c         1 MOL      0.724780
     53 O9         -7.3990    1.8830   -2.9860 o         1 MOL     -0.587017
     54 H23        -6.0920    4.7050   -1.6950 hn        1 MOL      0.296257
     55 H24        -4.6190    2.1710   -1.7060 h1        1 MOL      0.108662
     56 H25        -4.9680    3.2860   -3.0990 h1        1 MOL      0.108662
     57 N5         -5.6400    0.5190   -2.8620 n         1 MOL     -0.539834
     58 C19        -6.1100   -0.7540   -3.3670 c3        1 MOL      0.089603
     59 C20        -6.9400   -1.5920   -2.3730 c         1 MOL      0.531118
     60 O10        -7.5980   -2.5470   -2.7430 o         1 MOL     -0.620579
     61 C21        -4.9180   -1.5900   -3.9010 c3        1 MOL     -0.133214
     62 C22        -3.8080   -1.8900   -2.8730 c         1 MOL      0.774318
     63 O11        -4.1180   -2.4340   -1.8300 o         1 MOL     -0.716196
     64 O12        -2.6410   -1.5200   -3.1540 o         1 MOL     -0.716196
     65 H26        -4.6210    0.5850   -2.8600 hn        1 MOL      0.287904
     66 H27        -6.7690   -0.7180   -4.2360 h1        1 MOL      0.048417
     67 H28        -4.4270   -1.0730   -4.7330 hc        1 MOL      0.002831
     68 H29        -5.2660   -2.5410   -4.3080 hc        1 MOL      0.002831
     69 N6         -6.9680   -1.1210   -1.1680 n         1 MOL     -0.323243
     70 C23        -7.8170   -1.7170   -0.0380 c3        1 MOL     -0.087949
     71 C24        -7.2310   -3.0520    0.5230 c         1 MOL      0.422243
     72 O13        -7.5680   -3.5210    1.5220 o         1 MOL     -0.536563
     73 H30        -6.6000   -0.1940   -1.0320 hn        1 MOL      0.276561
     74 H31        -8.8360   -1.9760   -0.3060 h1        1 MOL      0.090813
     75 H32        -7.9310   -0.9720    0.7420 h1        1 MOL      0.090813
     76 N7         -6.2260   -3.6570   -0.2500 n         1 MOL     -0.007234
     77 C25        -5.7070   -5.0240   -0.0090 c3        1 MOL      0.105898
     78 C26        -5.1970   -5.2410    1.4130 c         1 MOL      0.405710
     79 O14        -5.0480   -6.3700    1.9050 o         1 MOL     -0.530505
     80 C27        -6.5340   -6.1500   -0.5880 c3        1 MOL      0.282751
     81 C28        -7.1300   -5.8170   -2.0030 c3        1 MOL     -0.254274
     82 C29        -7.9040   -7.0190   -2.6380 c         1 MOL      0.605120
     83 N8         -9.0640   -6.8610   -3.2340 n         1 MOL     -0.738911
     84 O15        -7.3700   -8.1620   -2.6830 o         1 MOL     -0.578782
     85 H33        -5.8290   -3.1700   -1.0370 hn        1 MOL      0.035741
     86 H34        -4.8210   -5.1700   -0.6320 h1        1 MOL      0.064081
     87 H35        -7.3230   -6.4120    0.1210 hc        1 MOL     -0.084118
     88 H36        -5.8460   -6.9900   -0.7080 hc        1 MOL     -0.084118
     89 H37        -6.3180   -5.5160   -2.6520 hc        1 MOL      0.084370
     90 H38        -7.9260   -5.0950   -1.7810 hc        1 MOL      0.084370
     91 H39        -9.3760   -5.9120   -3.3750 hn        1 MOL      0.339020
     92 H40        -9.5910   -7.5920   -3.7010 hn        1 MOL      0.339020
     93 N9         -4.7110   -4.1150    2.0720 n         1 MOL     -0.320647
     94 C30        -4.2730   -4.1260    3.4780 c3        1 MOL     -0.006959
     95 C31        -2.7600   -4.0530    3.5870 c         1 MOL      0.598182
     96 O16        -2.2380   -4.4990    4.6290 o         1 MOL     -0.604648
     97 C32        -4.9040   -2.9920    4.3650 c3        1 MOL      0.408456
     98 C33        -4.7080   -1.6010    3.6740 c3        1 MOL     -0.389838
     99 C34        -6.3410   -3.3150    4.7320 c3        1 MOL     -0.389838
    100 H41        -4.6210   -3.2880    1.4940 hn        1 MOL      0.156357
    101 H42        -4.5510   -5.1000    3.8860 h1        1 MOL      0.079130
    102 H43        -4.3680   -2.9980    5.3170 hc        1 MOL     -0.082094
    103 H44        -5.4240   -1.5900    2.8490 hc        1 MOL      0.085513
    104 H45        -5.0730   -0.8880    4.4050 hc        1 MOL      0.085513
    105 H46        -3.7120   -1.3230    3.3220 hc        1 MOL      0.085513
    106 H47        -6.8900   -3.5050    3.8160 hc        1 MOL      0.085513
    107 H48        -6.4070   -4.2650    5.2720 hc        1 MOL      0.085513
    108 H49        -6.7540   -2.4000    5.1460 hc        1 MOL      0.085513
    109 N10        -2.0140   -3.5950    2.5840 n         1 MOL     -0.669089
    110 C35        -0.5590   -3.4940    2.6640 c3        1 MOL      0.545684
    111 C36         0.1370   -3.4480    1.2810 c         1 MOL      0.365082
    112 O17        -0.4670   -3.7430    0.2510 o         1 MOL     -0.509354
    113 C37        -0.2790   -2.2810    3.6240 c3        1 MOL     -0.253326
    114 C38        -0.5240   -0.9470    2.8500 c         1 MOL      0.665789
    115 N11         0.4610   -0.3650    2.2380 n         1 MOL     -0.792423
    116 O18        -1.6340   -0.4320    2.7870 o         1 MOL     -0.516140
    117 H50        -2.4150   -3.2330    1.7280 hn        1 MOL      0.354484
    118 H51        -0.0910   -4.3470    3.1700 h1        1 MOL     -0.014008
    119 H52         0.7790   -2.2570    3.8990 hc        1 MOL      0.038256
    120 H53        -0.9350   -2.3370    4.5080 hc        1 MOL      0.038256
    121 H54         1.4460   -0.5720    2.3030 hn        1 MOL      0.356226
    122 H55         0.1600    0.3930    1.6450 hn        1 MOL      0.356226
    123 N12         1.4240   -3.1630    1.1700 n         1 MOL     -0.426242
    124 C39         2.3000   -3.1720   -0.0000 c3        1 MOL      0.376381
    125 C40         3.7140   -3.4850    0.4820 c         1 MOL      0.305772
    126 O19         4.0180   -3.3770    1.6820 o         1 MOL     -0.497168
    127 C41         2.2080   -1.8320   -0.7210 c3        1 MOL     -0.318966
    128 C42         3.1510   -1.7710   -1.8740 ca        1 MOL      0.024728
    129 C43         2.9150   -2.5900   -2.9630 ca        1 MOL     -0.101197
    130 C44         4.2930   -0.9370   -1.7650 ca        1 MOL     -0.101197
    131 C45         3.9880   -2.5860   -3.9370 ca        1 MOL     -0.207209
    132 C46         5.2100   -0.9300   -2.7640 ca        1 MOL     -0.207209
    133 C47         5.1270   -1.7980   -3.8960 ca        1 MOL      0.297426
    134 O20         6.0710   -1.9210   -4.8120 oh        1 MOL     -0.466417
    135 H56         1.8010   -2.7810    2.0210 hn        1 MOL      0.174099
    136 H57         2.0190   -4.0450   -0.5940 h1        1 MOL      0.067446
    137 H58         2.5140   -1.0140   -0.0730 hc        1 MOL      0.138874
    138 H59         1.1440   -1.8240   -0.9400 hc        1 MOL      0.138874
    139 H60         2.0720   -3.2610   -2.9400 ha        1 MOL      0.123059
    140 H61         4.4670   -0.3970   -0.8480 ha        1 MOL      0.123059
    141 H62         3.9340   -3.4000   -4.6510 ha        1 MOL      0.109999
    142 H63         6.1200   -0.3790   -2.6210 ha        1 MOL      0.109999
    143 H64         5.8120   -2.6900   -5.3190 ho        1 MOL      0.356426
    144 N13         4.5480   -4.0050   -0.4770 n         1 MOL     -0.528720
    145 C48         5.9340   -4.4060   -0.1740 c3        1 MOL      0.633602
    146 C49         6.8210   -3.6770   -1.1980 c         1 MOL      0.162400
    147 O21         6.9800   -4.0690   -2.3360 o         1 MOL     -0.506347
    148 C50         6.1870   -5.9280   -0.2740 c3        1 MOL      0.003807
    149 C51         5.4940   -6.7690    0.8550 c3        1 MOL     -0.342962
    150 C52         5.9070   -8.2230    0.5430 c         1 MOL      0.734892
    151 O22         6.5900   -8.7750    1.4420 o         1 MOL     -0.661598
    152 O23         5.5250   -8.8060   -0.4640 o         1 MOL     -0.661598
    153 H65         4.2840   -3.9080   -1.4420 hn        1 MOL      0.221618
    154 H66         6.1570   -4.1080    0.8490 h1        1 MOL     -0.172632
    155 H67         7.2600   -5.9880   -0.1050 hc        1 MOL      0.026155
    156 H68         6.0060   -6.3040   -1.2820 hc        1 MOL      0.026155
    157 H69         4.4090   -6.6870    0.8000 hc        1 MOL      0.085900
    158 H70         5.8300   -6.3310    1.7970 hc        1 MOL      0.085900
    159 N14         7.5000   -2.5950   -0.9470 n         1 MOL     -0.336507
    160 C53         7.6600   -1.9110    0.3390 c3        1 MOL      0.429691
    161 C54         8.1730   -2.7880    1.5280 c         1 MOL      0.478551
    162 O24         9.1460   -3.5170    1.3770 o         1 MOL     -0.569619
    163 C55         8.7030   -0.8500    0.0600 c3        1 MOL     -0.774256
    164 C56         8.2730    0.2180   -0.9700 c3        1 MOL     -1.409051
    165 C57         9.1290    1.5080   -0.8350 c         1 MOL      1.597336
    166 O25         9.1920    2.1120    0.2780 o         1 MOL     -0.772504
    167 O26         9.9050    1.8660   -1.7060 o         1 MOL     -0.772504
    168 H71         8.0860   -2.2440   -1.6850 hn        1 MOL      0.348722
    169 H72         6.7640   -1.3910    0.6970 h1        1 MOL      0.008773
    170 H73         9.5560   -1.2800   -0.4650 hc        1 MOL      0.240862
    171 H74         8.9990   -0.3690    0.9940 hc        1 MOL      0.240862
    172 H75         7.2680    0.5850   -0.7270 hc        1 MOL      0.381440
    173 H76         8.2940   -0.2600   -1.9490 hc        1 MOL      0.381440
    174 N15         7.4200   -2.7030    2.5860 n         1 MOL     -0.098406
    175 C58         7.7480   -3.0810    3.9650 c3        1 MOL     -0.267771
    176 H77         6.8400   -3.3900    4.4830 h1        1 MOL      0.104757
    177 H78         8.4590   -3.9080    3.9570 h1        1 MOL      0.104757
    178 H79         8.1880   -2.2280    4.4810 h1        1 MOL      0.104757
    179 H80         6.6870   -2.0050    2.5590 hn        1 MOL      0.167782
    180 Ca1         9.1150    4.7590    0.4220 Ca        1 MOL      1.462128
    181 O27         6.4250    4.1160    0.0970 oh        1 MOL     -0.847438
    182 H81         5.8230    4.4380   -0.5710 ho        1 MOL      0.375311
    183 H82         6.0670    4.4240    0.9280 ho        1 MOL      0.375311
    184 O28        11.2750    4.1370   -0.8290 oh        1 MOL     -0.847438
    185 H83        11.8910    4.6330   -1.3740 ho        1 MOL      0.375311
    186 H84        11.1780    3.2970   -1.2790 ho        1 MOL      0.375311
    187 O29         9.8980    3.3620    2.5900 oh        1 MOL     -0.847438
    188 H85        10.1780    3.4390    3.5090 ho        1 MOL      0.375311
    189 H86         9.9240    2.4150    2.4150 ho        1 MOL      0.375311
    190 O30         8.3960    4.4790   -2.5040 oh        1 MOL     -0.847438
    191 H87         8.5120    3.6350   -2.9360 ho        1 MOL      0.375311
    192 H88         8.3620    5.1160   -3.2300 ho        1 MOL      0.375311
    193 O31        10.8660    6.3620    1.8900 oh        1 MOL     -0.847438
    194 H89        10.6970    7.1750    2.3720 ho        1 MOL      0.375311
    195 H90        11.6640    6.0180    2.2870 ho        1 MOL      0.375311
    196 O32         9.4050    7.0230   -1.0310 oh        1 MOL     -0.847438
    197 H91         9.5140    7.8690   -0.5990 ho        1 MOL      0.375311
    198 H92         9.4310    7.2270   -1.9690 ho        1 MOL      0.375311
@<TRIPOS>BOND
     1    1    2 1   
     2    1    4 1   
     3    1    5 1   
     4    1    6 1   
     5    2    3 2   
     6    2    7 1   
     7    7    8 1   
     8    7   15 1   
     9    8    9 1   
    10    8   11 1   
    11    8   16 1   
    12    9   10 2   
    13    9   19 1   
    14   11   12 1   
    15   11   17 1   
    16   11   18 1   
    17   12   13 1   
    18   12   14 1   
    19   19   20 1   
    20   19   27 1   
    21   20   21 1   
    22   20   23 1   
    23   20   28 1   
    24   21   22 2   
    25   21   38 1   
    26   23   24 1   
    27   23   25 1   
    28   23   29 1   
    29   24   26 1   
    30   24   30 1   
    31   24   31 1   
    32   25   32 1   
    33   25   33 1   
    34   25   34 1   
    35   26   35 1   
    36   26   36 1   
    37   26   37 1   
    38   38   39 1   
    39   38   46 1   
    40   39   40 1   
    41   39   42 1   
    42   39   47 1   
    43   40   41 2   
    44   40   50 1   
    45   42   43 1   
    46   42   48 1   
    47   42   49 1   
    48   43   44 1   
    49   43   45 1   
    50   50   51 1   
    51   50   54 1   
    52   51   52 1   
    53   51   55 1   
    54   51   56 1   
    55   52   53 2   
    56   52   57 1   
    57   57   58 1   
    58   57   65 1   
    59   58   59 1   
    60   58   61 1   
    61   58   66 1   
    62   59   60 2   
    63   59   69 1   
    64   61   62 1   
    65   61   67 1   
    66   61   68 1   
    67   62   63 1   
    68   62   64 1   
    69   69   70 1   
    70   69   73 1   
    71   70   71 1   
    72   70   74 1   
    73   70   75 1   
    74   71   72 2   
    75   71   76 1   
    76   76   77 1   
    77   76   85 1   
    78   77   78 1   
    79   77   80 1   
    80   77   86 1   
    81   78   79 2   
    82   78   93 1   
    83   80   81 1   
    84   80   87 1   
    85   80   88 1   
    86   81   82 1   
    87   81   89 1   
    88   81   90 1   
    89   82   83 1   
    90   82   84 2   
    91   83   91 1   
    92   83   92 1   
    93   93   94 1   
    94   93  100 1   
    95   94   95 1   
    96   94   97 1   
    97   94  101 1   
    98   95   96 2   
    99   95  109 1   
   100   97   98 1   
   101   97   99 1   
   102   97  102 1   
   103   98  103 1   
   104   98  104 1   
   105   98  105 1   
   106   99  106 1   
   107   99  107 1   
   108   99  108 1   
   109  109  110 1   
   110  109  117 1   
   111  110  111 1   
   112  110  113 1   
   113  110  118 1   
   114  111  112 2   
   115  111  123 1   
   116  113  114 1   
   117  113  119 1   
   118  113  120 1   
   119  114  115 1   
   120  114  116 2   
   121  115  121 1   
   122  115  122 1   
   123  123  124 1   
   124  123  135 1   
   125  124  125 1   
   126  124  127 1   
   127  124  136 1   
   128  125  126 2   
   129  125  144 1   
   130  127  128 1   
   131  127  137 1   
   132  127  138 1   
   133  128  129 ar  
   134  128  130 ar  
   135  129  131 ar  
   136  129  139 1   
   137  130  132 ar  
   138  130  140 1   
   139  131  133 ar  
   140  131  141 1   
   141  132  133 ar  
   142  132  142 1   
   143  133  134 1   
   144  134  143 1   
   145  144  145 1   
   146  144  153 1   
   147  145  146 1   
   148  145  148 1   
   149  145  154 1   
   150  146  147 2   
   151  146  159 1   
   152  148  149 1   
   153  148  155 1   
   154  148  156 1   
   155  149  150 1   
   156  149  157 1   
   157  149  158 1   
   158  150  151 1   
   159  150  152 1   
   160  159  160 1   
   161  159  168 1   
   162  160  161 1   
   163  160  163 1   
   164  160  169 1   
   165  161  162 2   
   166  161  174 1   
   167  163  164 1   
   168  163  170 1   
   169  163  171 1   
   170  164  165 1   
   171  164  172 1   
   172  164  173 1   
   173  165  166 1   
   174  165  167 1   
   175  174  175 1   
   176  174  179 1   
   177  175  176 1   
   178  175  177 1   
   179  175  178 1   
   180  181  182 1   
   181  181  183 1   
   182  184  185 1   
   183  184  186 1   
   184  187  188 1   
   185  187  189 1   
   186  190  191 1   
   187  190  192 1   
   188  193  194 1   
   189  193  195 1   
   190  196  197 1   
   191  196  198 1   
@<TRIPOS>SUBSTRUCTURE
     1 MOL         1 TEMP              0 ****  ****    0 ROOT
