@<TRIPOS>MOLECULE
MOL
  186   183     1     0     0
SMALL
resp


@<TRIPOS>ATOM
      1 C1        -10.6130    4.4380    4.0520 c3        1 MOL     -0.547555
      2 C2        -10.5500    3.7760    2.6610 c         1 MOL      0.590774
      3 O1        -10.9380    2.6220    2.4290 o         1 MOL     -0.561872
      4 H1        -10.1370    5.4180    4.0100 hc        1 MOL      0.148009
      5 H2        -11.6540    4.5530    4.3540 hc        1 MOL      0.148009
      6 H3        -10.0920    3.8120    4.7760 hc        1 MOL      0.148009
      7 N1        -10.2480    4.5840    1.5960 n         1 MOL      0.037821
      8 C3        -10.2780    4.0350    0.2110 c3        1 MOL     -1.151695
      9 C4         -9.1300    3.0470    0.0620 c         1 MOL      0.907225
     10 O2         -7.9990    3.3190    0.4320 o         1 MOL     -0.885951
     11 C5        -10.3230    5.1460   -0.8740 c3        1 MOL      0.476991
     12 C6         -9.2940    6.1870   -0.7600 c         1 MOL      0.762922
     13 O3         -8.3020    6.1350   -0.0140 o         1 MOL     -0.761215
     14 O4         -9.4260    7.1080   -1.5510 o         1 MOL     -0.761215
     15 H4         -9.9760    5.5240    1.8230 hn        1 MOL      0.096075
     16 H5        -11.2580    3.5510    0.1710 h1        1 MOL      0.292884
     17 H6        -11.2570    5.6710   -0.7140 hc        1 MOL     -0.012076
     18 H7        -10.4640    4.6860   -1.8450 hc        1 MOL     -0.012076
     19 N2         -9.4840    1.8610   -0.4410 n         1 MOL     -0.095583
     20 C7         -8.8130    0.5730   -0.3550 c3        1 MOL     -0.177242
     21 C8         -7.5200    0.6330   -1.1970 c         1 MOL      0.507130
     22 O5         -7.5320    0.0500   -2.2820 o         1 MOL     -0.445570
     23 C9         -9.8530   -0.5870   -0.6210 c3        1 MOL     -0.254555
     24 C10        -9.3640   -2.0130   -0.3060 c3        1 MOL      0.469374
     25 C11       -10.5100   -3.0590   -0.4130 c3        1 MOL     -0.135204
     26 C12        -9.7950   -4.3570   -0.5460 c3        1 MOL      0.134696
     27 N3        -10.6960   -5.4640   -0.2340 n4        1 MOL     -0.343445
     28 H8        -10.4870    1.7890   -0.5490 hn        1 MOL      0.202567
     29 H9         -8.5570    0.5460    0.7040 h1        1 MOL      0.102925
     30 H10       -10.0630   -0.6150   -1.6840 hc        1 MOL      0.093739
     31 H11       -10.7530   -0.3610   -0.0360 hc        1 MOL      0.093739
     32 H12        -9.0650   -2.1240    0.7430 hc        1 MOL     -0.112330
     33 H13        -8.5930   -2.2620   -1.0250 hc        1 MOL     -0.112330
     34 H14       -11.0780   -2.8980   -1.3210 hc        1 MOL      0.012595
     35 H15       -11.0120   -2.9220    0.5450 hc        1 MOL      0.012595
     36 H16        -9.0050   -4.3510    0.2040 hx        1 MOL      0.087052
     37 H17        -9.4080   -4.4210   -1.5600 hx        1 MOL      0.087052
     38 H18       -10.2130   -6.3370   -0.1040 hn        1 MOL      0.303256
     39 H19       -11.1870   -5.3640    0.6380 hn        1 MOL      0.303256
     40 H20       -11.5470   -5.5680   -0.7650 hn        1 MOL      0.303256
     41 N4         -6.4910    1.3640   -0.7920 n         1 MOL     -0.495187
     42 C13        -5.1910    1.5330   -1.3910 c3        1 MOL     -0.029161
     43 C14        -4.1820    2.1920   -0.4250 c         1 MOL      0.616978
     44 O6         -4.5480    3.1860    0.1820 o         1 MOL     -0.809850
     45 C15        -5.4050    2.3760   -2.7200 c3        1 MOL     -0.107375
     46 C16        -6.4040    3.5550   -2.5470 c         1 MOL      0.701500
     47 O7         -7.3630    3.6770   -3.3720 o         1 MOL     -0.659965
     48 O8         -6.1740    4.4010   -1.6730 o         1 MOL     -0.659965
     49 H21        -6.6280    1.9320    0.0360 hn        1 MOL      0.389214
     50 H22        -4.8190    0.5800   -1.7540 h1        1 MOL      0.059552
     51 H23        -5.7520    1.7280   -3.5140 hc        1 MOL      0.041831
     52 H24        -4.4230    2.7550   -3.0190 hc        1 MOL      0.041831
     53 N5         -2.9710    1.7030   -0.3770 n         1 MOL     -0.203503
     54 C17        -2.5090    0.3470   -0.8090 c3        1 MOL     -0.532550
     55 C18        -3.3010   -0.8900   -0.2880 c         1 MOL      0.645632
     56 O9         -3.9020   -0.9080    0.8180 o         1 MOL     -0.551979
     57 H25        -2.2790    2.2240    0.1530 hn        1 MOL      0.252231
     58 H26        -1.4670    0.1750   -0.5320 h1        1 MOL      0.192989
     59 H27        -2.5210    0.3830   -1.8920 h1        1 MOL      0.192989
     60 N6         -3.4070   -1.8920   -1.1290 n         1 MOL     -0.309132
     61 C19        -4.2070   -3.1360   -1.0590 c3        1 MOL     -0.067702
     62 C20        -3.4930   -4.3550   -1.4750 c         1 MOL      0.605837
     63 O10        -2.5950   -4.2280   -2.3480 o         1 MOL     -0.531179
     64 C21        -5.4540   -2.7890   -1.9900 c3        1 MOL     -0.160342
     65 C22        -6.4890   -3.9180   -2.1830 c         1 MOL      0.705976
     66 O11        -7.1740   -4.0060   -3.2110 o         1 MOL     -0.715847
     67 O12        -6.5910   -4.7690   -1.3100 o         1 MOL     -0.715847
     68 H28        -2.6200   -1.9510   -1.7660 hn        1 MOL      0.221819
     69 H29        -4.6390   -3.3300   -0.0780 h1        1 MOL      0.019567
     70 H30        -5.0060   -2.5490   -2.9540 hc        1 MOL      0.079746
     71 H31        -5.9670   -1.9330   -1.5430 hc        1 MOL      0.079746
     72 N7         -3.8280   -5.5000   -0.9370 n         1 MOL     -0.270842
     73 C23        -2.8820   -6.6800   -0.9520 c3        1 MOL     -0.198833
     74 C24        -1.5670   -6.4190   -0.2170 c         1 MOL      0.609537
     75 O13        -0.5570   -6.5080   -0.8870 o         1 MOL     -0.513465
     76 H32        -4.6560   -5.5890   -0.3630 hn        1 MOL      0.229546
     77 H33        -2.6840   -6.9920   -1.9800 h1        1 MOL      0.107530
     78 H34        -3.3950   -7.5130   -0.4550 h1        1 MOL      0.107530
     79 N8         -1.5840   -6.0120    1.0620 n         1 MOL     -0.567961
     80 C25        -0.3340   -5.4230    1.6000 c3        1 MOL     -0.081407
     81 C26        -0.1760   -3.8740    1.3270 c         1 MOL      0.777424
     82 O14        -1.1280   -3.1040    1.1990 o         1 MOL     -0.621745
     83 C27        -0.2460   -5.6410    3.1200 c3        1 MOL      0.448517
     84 C28        -1.1710   -4.9100    4.0240 c3        1 MOL     -0.311099
     85 O15        -0.3950   -7.0390    3.3760 oh        1 MOL     -0.667219
     86 H35        -2.4540   -5.7330    1.5010 hn        1 MOL      0.312642
     87 H36         0.5170   -5.9270    1.1330 h1        1 MOL      0.088894
     88 H37         0.7580   -5.3310    3.3790 h1        1 MOL      0.017113
     89 H38        -1.1860   -7.3710    2.9500 ho        1 MOL      0.391275
     90 H39        -2.2100   -4.8120    3.6930 hc        1 MOL      0.074092
     91 H40        -1.1220   -5.3950    5.0080 hc        1 MOL      0.074092
     92 H41        -0.7100   -3.9400    4.2250 hc        1 MOL      0.074092
     93 N9          1.0640   -3.4970    1.2780 n         1 MOL     -0.592194
     94 C29         1.4700   -2.1230    0.9770 c3        1 MOL      0.019890
     95 C30         2.8560   -1.9440    0.3040 c         1 MOL      0.502401
     96 O16         3.1660   -0.8840   -0.1820 o         1 MOL     -0.523779
     97 C31         1.4710   -1.3260    2.2790 c3        1 MOL      0.133730
     98 C32         1.5490    0.2070    2.1240 c3        1 MOL     -0.029574
     99 C33         2.4750   -1.8580    3.3370 c3        1 MOL     -0.296419
    100 C34         0.3790    0.6580    1.2640 c3        1 MOL     -0.120537
    101 H42         1.8230   -4.1510    1.3570 hn        1 MOL      0.267788
    102 H43         0.7550   -1.7000    0.2730 h1        1 MOL      0.115040
    103 H44         0.5070   -1.5650    2.7310 hc        1 MOL      0.045864
    104 H45         2.4850    0.5600    1.6950 hc        1 MOL      0.024533
    105 H46         1.4590    0.6090    3.1300 hc        1 MOL      0.024533
    106 H47         2.7120   -1.1530    4.1300 hc        1 MOL      0.066506
    107 H48         2.1420   -2.8000    3.7790 hc        1 MOL      0.066506
    108 H49         3.4150   -2.1230    2.8760 hc        1 MOL      0.066506
    109 H50        -0.5180    0.2680    1.7290 hc        1 MOL      0.035804
    110 H51         0.2800    1.7470    1.3420 hc        1 MOL      0.035804
    111 H52         0.4330    0.4230    0.2030 hc        1 MOL      0.035804
    112 N10         3.7840   -2.8980    0.2530 n         1 MOL     -0.279846
    113 C35         5.1210   -2.7220   -0.3060 c3        1 MOL     -0.161647
    114 C36         6.2630   -3.0620    0.6150 c         1 MOL      0.684446
    115 O17         6.1350   -3.8850    1.5050 o         1 MOL     -0.564756
    116 C37         5.2400   -3.2890   -1.7180 c3        1 MOL      0.391454
    117 C38         4.9880   -4.7810   -1.6660 c3        1 MOL     -0.306176
    118 O18         4.3210   -2.7640   -2.5960 oh        1 MOL     -0.589262
    119 H53         3.5850   -3.8650    0.4680 hn        1 MOL      0.230758
    120 H54         5.2990   -1.6660   -0.5130 h1        1 MOL      0.103162
    121 H55         6.2390   -3.0590   -2.0960 h1        1 MOL     -0.047995
    122 H56         4.5100   -1.8440   -2.7680 ho        1 MOL      0.402268
    123 H57         5.8350   -5.4180   -1.4120 hc        1 MOL      0.090158
    124 H58         4.2420   -5.0820   -0.9180 hc        1 MOL      0.090158
    125 H59         4.6430   -5.1290   -2.6390 hc        1 MOL      0.090158
    126 N11         7.3730   -2.3930    0.4690 n         1 MOL     -0.534371
    127 C39         8.6280   -2.5960    1.1730 c3        1 MOL     -0.026289
    128 C40         9.3950   -1.3260    1.6310 c         1 MOL      0.579344
    129 O19         9.9250   -1.1880    2.7270 o         1 MOL     -0.532209
    130 C41         9.5720   -3.5060    0.3720 c3        1 MOL      0.288653
    131 C42        10.9880   -3.7760    0.8790 c3        1 MOL     -0.513887
    132 O20         9.7720   -2.9560   -0.8400 oh        1 MOL     -0.552219
    133 H60         7.4330   -1.7120   -0.2790 hn        1 MOL      0.259077
    134 H61         8.3770   -3.1530    2.0820 h1        1 MOL      0.113827
    135 H62         9.0450   -4.4350    0.1570 h1        1 MOL      0.028882
    136 H63         9.7280   -3.7160   -1.4320 ho        1 MOL      0.384897
    137 H64        11.4370   -4.6120    0.3580 hc        1 MOL      0.138237
    138 H65        11.6640   -2.9560    0.6320 hc        1 MOL      0.138237
    139 H66        11.0040   -3.9390    1.9650 hc        1 MOL      0.138237
    140 N12         9.5440   -0.3440    0.6920 n         1 MOL     -0.431130
    141 C43        10.3050    0.8580    0.8170 c3        1 MOL      0.307919
    142 C44         9.6410    2.0490    0.1190 c         1 MOL      0.229714
    143 O21         8.8660    1.9600   -0.8160 o         1 MOL     -0.491633
    144 C45        11.7130    0.8480    0.1760 c3        1 MOL     -0.310096
    145 C46        11.7180    0.3080   -1.2580 c3        1 MOL      0.206947
    146 C47        13.1350   -0.0140   -1.6800 c3        1 MOL     -0.032381
    147 C48        13.0790   -0.2280   -3.1720 c3        1 MOL     -0.018588
    148 N13        14.4810   -0.3550   -3.8110 n4        1 MOL     -0.097798
    149 H67         9.2260   -0.6190   -0.2360 hn        1 MOL      0.256824
    150 H68        10.3650    1.1270    1.8700 h1        1 MOL      0.054505
    151 H69        12.3040    0.1590    0.7720 hc        1 MOL      0.085816
    152 H70        12.0800    1.8720    0.1420 hc        1 MOL      0.085816
    153 H71        11.3950    1.0450   -1.9980 hc        1 MOL     -0.018764
    154 H72        11.0160   -0.5190   -1.2920 hc        1 MOL     -0.018764
    155 H73        13.3390   -1.0170   -1.3110 hc        1 MOL      0.025879
    156 H74        13.7820    0.8160   -1.3950 hc        1 MOL      0.025879
    157 H75        12.5820    0.7030   -3.4250 hx        1 MOL      0.076666
    158 H76        12.6030   -1.1330   -3.5200 hx        1 MOL      0.076666
    159 H77        15.0640   -1.0330   -3.3350 hn        1 MOL      0.191890
    160 H78        14.5190   -0.6050   -4.7870 hn        1 MOL      0.191890
    161 H79        14.9610    0.5350   -3.8610 hn        1 MOL      0.191890
    162 N14         9.8380    3.2540    0.5890 n         1 MOL     -0.304982
    163 C49         9.4640    4.5040   -0.1470 c3        1 MOL      0.256977
    164 C50         7.9760    4.6750   -0.5590 c         1 MOL      0.338574
    165 O22         7.8580    5.0060   -1.7550 o         1 MOL     -0.532151
    166 C51        10.0140    5.7240    0.6360 c3        1 MOL     -0.185239
    167 C52        10.1080    6.9520   -0.2900 c3        1 MOL     -0.161346
    168 C53        10.8500    8.1640    0.3080 c         1 MOL      0.741675
    169 O23        11.9410    8.5520   -0.0940 o         1 MOL     -0.655710
    170 O24        10.2340    8.8160    1.1340 o         1 MOL     -0.655710
    171 H80        10.4810    3.2330    1.3620 hn        1 MOL      0.193128
    172 H81        10.0990    4.4500   -1.0320 h1        1 MOL      0.075652
    173 H82        11.0170    5.5360    1.0140 hc        1 MOL      0.056737
    174 H83         9.2780    6.0190    1.3840 hc        1 MOL      0.056737
    175 H84         9.1240    7.3060   -0.6100 hc        1 MOL      0.031131
    176 H85        10.6630    6.5660   -1.1440 hc        1 MOL      0.031131
    177 N15         6.9080    4.4990    0.2410 n         1 MOL     -0.232859
    178 C54         6.8340    4.0380    1.6640 c3        1 MOL      0.006485
    179 H86         6.6520    2.9640    1.6880 h1        1 MOL      0.037148
    180 H87         7.7750    4.2580    2.1670 h1        1 MOL      0.037148
    181 H88         6.0200    4.5560    2.1720 h1        1 MOL      0.037148
    182 H89         6.0360    4.6810   -0.2240 hn        1 MOL      0.254023
    183 Ca1        -6.1420    5.1110    0.9650 Ca        1 MOL      1.715566
    184 O25        -6.5180    2.8150    2.9250 oh        1 MOL     -0.754786
    185 H90        -6.4700    1.9240    2.5800 ho        1 MOL      0.386636
    186 H91        -6.2080    2.7350    3.8350 ho        1 MOL      0.386636
@<TRIPOS>BOND
     1    1    2 1   
     2    1    4 1   
     3    1    5 1   
     4    1    6 1   
     5    2    3 2   
     6    2    7 1   
     7    7    8 1   
     8    7   15 1   
     9    8    9 1   
    10    8   11 1   
    11    8   16 1   
    12    9   10 2   
    13    9   19 1   
    14   11   12 1   
    15   11   17 1   
    16   11   18 1   
    17   12   13 1   
    18   12   14 1   
    19   19   20 1   
    20   19   28 1   
    21   20   21 1   
    22   20   23 1   
    23   20   29 1   
    24   21   22 2   
    25   21   41 1   
    26   23   24 1   
    27   23   30 1   
    28   23   31 1   
    29   24   25 1   
    30   24   32 1   
    31   24   33 1   
    32   25   26 1   
    33   25   34 1   
    34   25   35 1   
    35   26   27 1   
    36   26   36 1   
    37   26   37 1   
    38   27   38 1   
    39   27   39 1   
    40   27   40 1   
    41   41   42 1   
    42   41   49 1   
    43   42   43 1   
    44   42   45 1   
    45   42   50 1   
    46   43   44 2   
    47   43   53 1   
    48   45   46 1   
    49   45   51 1   
    50   45   52 1   
    51   46   47 1   
    52   46   48 1   
    53   53   54 1   
    54   53   57 1   
    55   54   55 1   
    56   54   58 1   
    57   54   59 1   
    58   55   56 2   
    59   55   60 1   
    60   60   61 1   
    61   60   68 1   
    62   61   62 1   
    63   61   64 1   
    64   61   69 1   
    65   62   63 2   
    66   62   72 1   
    67   64   65 1   
    68   64   70 1   
    69   64   71 1   
    70   65   66 1   
    71   65   67 1   
    72   72   73 1   
    73   72   76 1   
    74   73   74 1   
    75   73   77 1   
    76   73   78 1   
    77   74   75 2   
    78   74   79 1   
    79   79   80 1   
    80   79   86 1   
    81   80   81 1   
    82   80   83 1   
    83   80   87 1   
    84   81   82 2   
    85   81   93 1   
    86   83   84 1   
    87   83   85 1   
    88   83   88 1   
    89   84   90 1   
    90   84   91 1   
    91   84   92 1   
    92   85   89 1   
    93   93   94 1   
    94   93  101 1   
    95   94   95 1   
    96   94   97 1   
    97   94  102 1   
    98   95   96 2   
    99   95  112 1   
   100   97   98 1   
   101   97   99 1   
   102   97  103 1   
   103   98  100 1   
   104   98  104 1   
   105   98  105 1   
   106   99  106 1   
   107   99  107 1   
   108   99  108 1   
   109  100  109 1   
   110  100  110 1   
   111  100  111 1   
   112  112  113 1   
   113  112  119 1   
   114  113  114 1   
   115  113  116 1   
   116  113  120 1   
   117  114  115 2   
   118  114  126 1   
   119  116  117 1   
   120  116  118 1   
   121  116  121 1   
   122  117  123 1   
   123  117  124 1   
   124  117  125 1   
   125  118  122 1   
   126  126  127 1   
   127  126  133 1   
   128  127  128 1   
   129  127  130 1   
   130  127  134 1   
   131  128  129 2   
   132  128  140 1   
   133  130  131 1   
   134  130  132 1   
   135  130  135 1   
   136  131  137 1   
   137  131  138 1   
   138  131  139 1   
   139  132  136 1   
   140  140  141 1   
   141  140  149 1   
   142  141  142 1   
   143  141  144 1   
   144  141  150 1   
   145  142  143 2   
   146  142  162 1   
   147  144  145 1   
   148  144  151 1   
   149  144  152 1   
   150  145  146 1   
   151  145  153 1   
   152  145  154 1   
   153  146  147 1   
   154  146  155 1   
   155  146  156 1   
   156  147  148 1   
   157  147  157 1   
   158  147  158 1   
   159  148  159 1   
   160  148  160 1   
   161  148  161 1   
   162  162  163 1   
   163  162  171 1   
   164  163  164 1   
   165  163  166 1   
   166  163  172 1   
   167  164  165 2   
   168  164  177 1   
   169  166  167 1   
   170  166  173 1   
   171  166  174 1   
   172  167  168 1   
   173  167  175 1   
   174  167  176 1   
   175  168  169 1   
   176  168  170 1   
   177  177  178 1   
   178  177  182 1   
   179  178  179 1   
   180  178  180 1   
   181  178  181 1   
   182  184  185 1   
   183  184  186 1   
@<TRIPOS>SUBSTRUCTURE
     1 MOL         1 TEMP              0 ****  ****    0 ROOT
