@<TRIPOS>MOLECULE
MOL
  178   175     1     0     0
SMALL
resp


@<TRIPOS>ATOM
      1 C1        -10.5970    6.3130    2.5950 c3        1 MOL     -0.335371
      2 C2         -9.7820    5.7960    1.4370 c         1 MOL      0.699572
      3 O1         -8.7710    6.3740    1.0780 o         1 MOL     -0.594025
      4 H1        -11.1850    5.4980    3.0170 hc        1 MOL      0.080718
      5 H2         -9.9310    6.7130    3.3590 hc        1 MOL      0.080718
      6 H3        -11.2670    7.0990    2.2470 hc        1 MOL      0.080718
      7 N1        -10.0710    4.7040    0.7860 n         1 MOL     -0.502416
      8 C3        -11.2290    3.7670    0.8180 c3        1 MOL      0.123738
      9 C4        -11.4490    3.1730   -0.6140 c         1 MOL      0.422368
     10 O2        -11.0210    3.7460   -1.6230 o         1 MOL     -0.479438
     11 C5        -11.1660    2.7040    1.8860 c3        1 MOL     -0.034221
     12 C6         -9.9140    1.8800    1.7200 c         1 MOL      0.794720
     13 O3        -10.0490    0.7560    1.1410 o         1 MOL     -0.766058
     14 O4         -8.7790    2.1720    2.2280 o         1 MOL     -0.766058
     15 H4         -9.4330    4.4550    0.0390 hn        1 MOL      0.343706
     16 H5        -12.1630    4.2960    0.9770 h1        1 MOL      0.016216
     17 H6        -12.0330    2.0460    1.8770 hc        1 MOL     -0.029012
     18 H7        -11.2230    3.1780    2.8700 hc        1 MOL     -0.029012
     19 N2        -12.1150    2.0470   -0.6040 n         1 MOL     -0.498902
     20 C7        -12.4950    1.2700   -1.7050 c3        1 MOL      0.318245
     21 C8        -11.3250    0.7950   -2.5630 c         1 MOL      0.395873
     22 O5        -11.5580    0.4370   -3.7080 o         1 MOL     -0.547783
     23 C9        -13.6410    1.9680   -2.5270 c3        1 MOL     -0.363544
     24 H8        -12.5140    1.6730    0.2410 hn        1 MOL      0.318127
     25 H9        -12.9560    0.3910   -1.2540 h1        1 MOL     -0.006109
     26 H10       -14.5520    2.0960   -1.9440 hc        1 MOL      0.095123
     27 H11       -13.2570    2.8950   -2.9560 hc        1 MOL      0.095123
     28 H12       -13.8270    1.2910   -3.3540 hc        1 MOL      0.095123
     29 N3        -10.1200    0.6560   -1.9870 n         1 MOL     -0.188339
     30 C10        -8.9010    0.1710   -2.6740 c3        1 MOL      0.181713
     31 C11        -8.3570   -1.1750   -2.0770 c         1 MOL      0.312945
     32 O6         -8.6720   -1.4090   -0.8620 o         1 MOL     -0.569171
     33 C12        -7.9270    1.3170   -2.7330 c3        1 MOL     -0.204593
     34 C13        -7.6220    2.0640   -1.4480 c         1 MOL      0.705896
     35 O7         -7.4880    1.3990   -0.4290 o         1 MOL     -0.670006
     36 O8         -7.5340    3.2970   -1.4880 o         1 MOL     -0.670006
     37 H13       -10.1090    0.9250   -1.0150 hn        1 MOL      0.083568
     38 H14        -9.1870   -0.0750   -3.6980 h1        1 MOL     -0.009081
     39 H15        -8.4170    2.0620   -3.3690 hc        1 MOL      0.057275
     40 H16        -7.0350    1.0240   -3.2710 hc        1 MOL      0.057275
     41 N4         -7.6170   -1.9010   -2.8250 n         1 MOL     -0.237429
     42 C14        -6.7260   -2.8790   -2.2600 c3        1 MOL     -0.182226
     43 C15        -5.8090   -2.3630   -1.1120 c         1 MOL      0.604370
     44 O9         -6.0230   -1.3060   -0.5150 o         1 MOL     -0.537337
     45 H17        -7.4740   -1.5680   -3.7600 hn        1 MOL      0.283660
     46 H18        -6.2390   -3.3050   -3.1330 h1        1 MOL      0.105068
     47 H19        -7.3300   -3.6580   -1.8000 h1        1 MOL      0.105068
     48 N5         -4.7160   -3.1070   -0.8250 n         1 MOL     -0.469885
     49 C16        -3.8890   -3.0040    0.4280 c3        1 MOL     -0.092718
     50 C17        -2.4070   -3.1040    0.1690 c         1 MOL      0.637951
     51 O10        -1.5500   -3.2950    1.0800 o         1 MOL     -0.554126
     52 C18        -4.4610   -3.9540    1.4760 c3        1 MOL     -0.159658
     53 C19        -5.9500   -3.6760    1.8650 c         1 MOL      0.514185
     54 N6         -6.7610   -4.7480    1.8020 n         1 MOL     -0.688051
     55 O11        -6.3770   -2.5340    2.0720 o         1 MOL     -0.567402
     56 H20        -4.4850   -3.8240   -1.4890 hn        1 MOL      0.257566
     57 H21        -3.9060   -1.9950    0.8240 h1        1 MOL      0.151036
     58 H22        -3.8270   -4.1180    2.3380 hc        1 MOL      0.087003
     59 H23        -4.4160   -4.9880    1.1330 hc        1 MOL      0.087003
     60 H24        -6.2800   -5.6260    1.7040 hn        1 MOL      0.328309
     61 H25        -7.7430   -4.6360    1.9880 hn        1 MOL      0.328309
     62 N7         -2.1070   -3.0750   -1.1760 n         1 MOL     -0.528374
     63 C20        -0.7700   -2.9470   -1.7190 c3        1 MOL      0.088424
     64 C21        -0.2980   -4.2930   -2.1970 c         1 MOL      0.534162
     65 O12        -0.6080   -4.6040   -3.3200 o         1 MOL     -0.577881
     66 H26        -2.8680   -2.9800   -1.8300 hn        1 MOL      0.308675
     67 H27        -0.0850   -2.5310   -0.9690 h1        1 MOL      0.074135
     68 H28        -0.7740   -2.2240   -2.5430 h1        1 MOL      0.074135
     69 N8          0.5660   -5.0660   -1.5620 n         1 MOL     -0.442054
     70 C22         1.2140   -4.8520   -0.2420 c3        1 MOL     -0.083225
     71 C23         2.2960   -3.8240   -0.2930 c         1 MOL      0.413569
     72 O13         2.9950   -3.7000   -1.3360 o         1 MOL     -0.490441
     73 C24         1.6680   -6.1790    0.4220 c3        1 MOL      0.339728
     74 C25         0.5060   -7.1250    0.7600 c3        1 MOL     -0.348780
     75 O14         2.4550   -6.9270   -0.5240 oh        1 MOL     -0.568976
     76 H29         0.8540   -5.9050   -2.0460 hn        1 MOL      0.319761
     77 H30         0.4310   -4.4130    0.3730 h1        1 MOL      0.124489
     78 H31         2.2530   -5.8720    1.2890 h1        1 MOL      0.030425
     79 H32         3.3880   -6.6990   -0.4350 ho        1 MOL      0.382162
     80 H33        -0.0900   -6.5750    1.4860 hc        1 MOL      0.085218
     81 H34        -0.0910   -7.1890   -0.1470 hc        1 MOL      0.085218
     82 H35         0.9010   -8.1110    1.0060 hc        1 MOL      0.085218
     83 N9          2.4400   -2.9640    0.7350 n         1 MOL     -0.203979
     84 C26         3.5510   -2.0040    0.8500 c3        1 MOL     -0.135806
     85 C27         4.4500   -2.3190    2.1270 c         1 MOL      0.508504
     86 O15         3.9100   -2.6900    3.1380 o         1 MOL     -0.552465
     87 C28         3.0350   -0.5250    0.9620 c3        1 MOL      0.089773
     88 C29         2.3230   -0.1430    2.2740 c3        1 MOL      0.044622
     89 C30         2.1360   -0.3540   -0.2390 c3        1 MOL     -0.356040
     90 C31         2.5700    1.3060    2.6900 c3        1 MOL     -0.044482
     91 H36         1.9560   -3.1800    1.5930 hn        1 MOL      0.187251
     92 H37         4.0990   -2.0590   -0.0930 h1        1 MOL      0.160380
     93 H38         3.8930    0.1040    0.7610 hc        1 MOL      0.082460
     94 H39         2.7360   -0.7510    3.0880 hc        1 MOL     -0.017436
     95 H40         1.2670   -0.3750    2.1670 hc        1 MOL     -0.017436
     96 H41         2.6130   -0.5970   -1.1950 hc        1 MOL      0.092446
     97 H42         1.2290   -0.9470   -0.1190 hc        1 MOL      0.092446
     98 H43         1.8330    0.6900   -0.2920 hc        1 MOL      0.092446
     99 H44         2.0230    1.5330    3.5970 hc        1 MOL      0.002447
    100 H45         3.6280    1.5280    2.7990 hc        1 MOL      0.002447
    101 H46         2.2670    1.9150    1.8410 hc        1 MOL      0.002447
    102 N10         5.7780   -2.2340    2.0680 n         1 MOL     -0.406561
    103 C32         6.5640   -1.8680    0.8450 c3        1 MOL     -0.049426
    104 C33         7.9110   -1.0830    1.1030 c         1 MOL      0.585876
    105 O16         8.2590   -0.8630    2.2450 o         1 MOL     -0.529818
    106 C34         6.8880   -3.1260   -0.1040 c3        1 MOL     -0.027530
    107 C35         7.5890   -4.3340    0.5670 c         1 MOL      0.683508
    108 O17         6.9820   -5.4060    0.6190 o         1 MOL     -0.705487
    109 O18         8.7530   -4.2560    1.0060 o         1 MOL     -0.705487
    110 H47         6.2430   -2.2260    2.9690 hn        1 MOL      0.312884
    111 H48         6.0430   -1.2150    0.1490 h1        1 MOL      0.036863
    112 H49         7.5500   -2.8030   -0.9170 hc        1 MOL     -0.014229
    113 H50         6.0140   -3.3660   -0.7030 hc        1 MOL     -0.014229
    114 N11         8.5300   -0.6760    0.0010 n         1 MOL     -0.611132
    115 C36         9.7630    0.1620   -0.0470 c3        1 MOL      0.308045
    116 C37         9.9360    0.8460   -1.4120 c         1 MOL      0.143941
    117 O19         9.7870    0.1550   -2.4330 o         1 MOL     -0.460741
    118 C38        10.9860   -0.7340    0.1320 c3        1 MOL     -0.344772
    119 C39        12.3040   -0.1200   -0.1180 ca        1 MOL      0.211726
    120 C40        13.0920   -0.3610   -1.2800 ca        1 MOL     -0.215494
    121 C41        12.8830    0.6480    0.8790 ca        1 MOL     -0.215494
    122 C42        14.4300    0.0260   -1.3010 ca        1 MOL     -0.049054
    123 C43        14.2260    1.1170    0.7760 ca        1 MOL     -0.049054
    124 C44        15.0060    0.7900   -0.3260 ca        1 MOL     -0.195775
    125 H51         8.0330   -0.8920   -0.8440 hn        1 MOL      0.371025
    126 H52         9.7450    0.8880    0.7610 h1        1 MOL      0.018577
    127 H53        10.7920   -1.5920   -0.5140 hc        1 MOL      0.143966
    128 H54        10.9120   -1.0970    1.1580 hc        1 MOL      0.143966
    129 H55        12.7410   -0.8800   -2.1520 ha        1 MOL      0.137092
    130 H56        12.2940    0.7680    1.7760 ha        1 MOL      0.137092
    131 H57        15.0040   -0.1790   -2.1840 ha        1 MOL      0.082745
    132 H58        14.6700    1.6050    1.6350 ha        1 MOL      0.082745
    133 H59        16.0130    1.1720   -0.3640 ha        1 MOL      0.112216
    134 N12        10.4820    2.0960   -1.4980 n         1 MOL      0.059073
    135 C45        10.7520    3.0290   -0.4170 c3        1 MOL      0.238983
    136 C46         9.5310    3.4650    0.4130 c         1 MOL      0.381495
    137 O20         9.6270    3.5370    1.6240 o         1 MOL     -0.524181
    138 C47        11.3210    4.2120   -1.1450 c3        1 MOL     -0.158876
    139 C48        12.1950    3.5440   -2.3020 c3        1 MOL     -0.032126
    140 C49        11.2750    2.4110   -2.7210 c3        1 MOL     -0.010587
    141 H60        11.6160    2.6830    0.1440 h1        1 MOL     -0.038107
    142 H61        10.5410    4.8290   -1.6060 hc        1 MOL      0.050590
    143 H62        11.9510    4.7890   -0.4770 hc        1 MOL      0.050590
    144 H63        12.4880    4.1390   -3.1660 hc        1 MOL      0.020183
    145 H64        13.0670    3.1270   -1.7960 hc        1 MOL      0.020183
    146 H65        10.5640    2.6650   -3.5000 h1        1 MOL      0.042048
    147 H66        11.9320    1.5750   -2.9630 h1        1 MOL      0.042048
    148 N13         8.4050    3.7610   -0.2820 n         1 MOL     -0.452476
    149 C50         7.1680    4.1410    0.2540 c3        1 MOL      0.410577
    150 C51         7.1500    5.6700    0.3310 c         1 MOL      0.338795
    151 O21         7.1500    6.3270   -0.7610 o         1 MOL     -0.595433
    152 C52         6.0900    3.4770   -0.6620 c3        1 MOL      0.159047
    153 C53         4.6690    3.6410   -0.3030 c3        1 MOL     -0.234592
    154 C54         3.7280    3.1160   -1.4700 c         1 MOL      0.789544
    155 O22         4.0060    2.0880   -2.0570 o         1 MOL     -0.712076
    156 O23         2.6960    3.7760   -1.8420 o         1 MOL     -0.712076
    157 H67         8.3800    3.4880   -1.2570 hn        1 MOL      0.188910
    158 H68         6.9910    3.6790    1.2200 h1        1 MOL     -0.017586
    159 H69         6.1910    2.4030   -0.6020 hc        1 MOL     -0.031168
    160 H70         6.3030    3.8160   -1.6700 hc        1 MOL     -0.031168
    161 H71         4.4560    4.7020   -0.1580 hc        1 MOL     -0.017089
    162 H72         4.4590    3.0890    0.6160 hc        1 MOL     -0.017089
    163 N14         7.1010    6.3500    1.4000 n         1 MOL     -0.264660
    164 C55         6.9780    5.9440    2.7840 c3        1 MOL     -0.086264
    165 H73         5.9920    5.5120    2.9500 h1        1 MOL      0.061401
    166 H74         7.7420    5.2020    3.0150 h1        1 MOL      0.061401
    167 H75         7.1070    6.8130    3.4310 h1        1 MOL      0.061401
    168 H76         6.9490    7.3370    1.2170 hn        1 MOL      0.262328
    169 Ca1        -7.7410   -0.4610    1.3450 Ca        1 MOL      1.715817
    170 O24        -8.5070   -0.7460    4.1240 oh        1 MOL     -0.795400
    171 H77        -9.1380   -0.4690    4.7830 ho        1 MOL      0.402905
    172 H78        -7.6770   -0.8220    4.6010 ho        1 MOL      0.402905
    173 O25        -5.3830    0.3600    2.4440 oh        1 MOL     -0.795400
    174 H79        -4.7900    0.8910    1.9040 ho        1 MOL      0.402905
    175 H80        -4.8900    0.2010    3.2480 ho        1 MOL      0.402905
    176 O26        -9.4080   -2.5570    1.7940 oh        1 MOL     -0.795400
    177 H81        -9.4460   -3.0200    0.9570 ho        1 MOL      0.402905
    178 H82        -9.2270   -3.2450    2.4400 ho        1 MOL      0.402905
@<TRIPOS>BOND
     1    1    2 1   
     2    1    4 1   
     3    1    5 1   
     4    1    6 1   
     5    2    3 2   
     6    2    7 1   
     7    7    8 1   
     8    7   15 1   
     9    8    9 1   
    10    8   11 1   
    11    8   16 1   
    12    9   10 2   
    13    9   19 1   
    14   11   12 1   
    15   11   17 1   
    16   11   18 1   
    17   12   13 1   
    18   12   14 1   
    19   19   20 1   
    20   19   24 1   
    21   20   21 1   
    22   20   23 1   
    23   20   25 1   
    24   21   22 2   
    25   21   29 1   
    26   23   26 1   
    27   23   27 1   
    28   23   28 1   
    29   29   30 1   
    30   29   37 1   
    31   30   31 1   
    32   30   33 1   
    33   30   38 1   
    34   31   32 2   
    35   31   41 1   
    36   33   34 1   
    37   33   39 1   
    38   33   40 1   
    39   34   35 1   
    40   34   36 1   
    41   41   42 1   
    42   41   45 1   
    43   42   43 1   
    44   42   46 1   
    45   42   47 1   
    46   43   44 2   
    47   43   48 1   
    48   48   49 1   
    49   48   56 1   
    50   49   50 1   
    51   49   52 1   
    52   49   57 1   
    53   50   51 2   
    54   50   62 1   
    55   52   53 1   
    56   52   58 1   
    57   52   59 1   
    58   53   54 1   
    59   53   55 2   
    60   54   60 1   
    61   54   61 1   
    62   62   63 1   
    63   62   66 1   
    64   63   64 1   
    65   63   67 1   
    66   63   68 1   
    67   64   65 2   
    68   64   69 1   
    69   69   70 1   
    70   69   76 1   
    71   70   71 1   
    72   70   73 1   
    73   70   77 1   
    74   71   72 2   
    75   71   83 1   
    76   73   74 1   
    77   73   75 1   
    78   73   78 1   
    79   74   80 1   
    80   74   81 1   
    81   74   82 1   
    82   75   79 1   
    83   83   84 1   
    84   83   91 1   
    85   84   85 1   
    86   84   87 1   
    87   84   92 1   
    88   85   86 2   
    89   85  102 1   
    90   87   88 1   
    91   87   89 1   
    92   87   93 1   
    93   88   90 1   
    94   88   94 1   
    95   88   95 1   
    96   89   96 1   
    97   89   97 1   
    98   89   98 1   
    99   90   99 1   
   100   90  100 1   
   101   90  101 1   
   102  102  103 1   
   103  102  110 1   
   104  103  104 1   
   105  103  106 1   
   106  103  111 1   
   107  104  105 2   
   108  104  114 1   
   109  106  107 1   
   110  106  112 1   
   111  106  113 1   
   112  107  108 1   
   113  107  109 1   
   114  114  115 1   
   115  114  125 1   
   116  115  116 1   
   117  115  118 1   
   118  115  126 1   
   119  116  117 2   
   120  116  134 1   
   121  118  119 1   
   122  118  127 1   
   123  118  128 1   
   124  119  120 ar  
   125  119  121 ar  
   126  120  122 ar  
   127  120  129 1   
   128  121  123 ar  
   129  121  130 1   
   130  122  124 ar  
   131  122  131 1   
   132  123  124 ar  
   133  123  132 1   
   134  124  133 1   
   135  134  135 1   
   136  134  140 1   
   137  135  136 1   
   138  135  138 1   
   139  135  141 1   
   140  136  137 2   
   141  136  148 1   
   142  138  139 1   
   143  138  142 1   
   144  138  143 1   
   145  139  140 1   
   146  139  144 1   
   147  139  145 1   
   148  140  146 1   
   149  140  147 1   
   150  148  149 1   
   151  148  157 1   
   152  149  150 1   
   153  149  152 1   
   154  149  158 1   
   155  150  151 2   
   156  150  163 1   
   157  152  153 1   
   158  152  159 1   
   159  152  160 1   
   160  153  154 1   
   161  153  161 1   
   162  153  162 1   
   163  154  155 1   
   164  154  156 1   
   165  163  164 1   
   166  163  168 1   
   167  164  165 1   
   168  164  166 1   
   169  164  167 1   
   170  170  171 1   
   171  170  172 1   
   172  173  174 1   
   173  173  175 1   
   174  176  177 1   
   175  176  178 1   
@<TRIPOS>SUBSTRUCTURE
     1 MOL         1 TEMP              0 ****  ****    0 ROOT
