@<TRIPOS>MOLECULE
MOL
  181   177     1     0     0
SMALL
resp


@<TRIPOS>ATOM
      1 C1          0.5350    6.9930   -1.8750 c3        1 MOL     -0.485131
      2 C2          1.7660    6.3550   -1.1930 c         1 MOL      0.737457
      3 O1          2.0710    6.5200   -0.0620 o         1 MOL     -0.558985
      4 H1         -0.2950    7.0240   -1.1700 hc        1 MOL      0.115605
      5 H2          0.7800    8.0080   -2.1920 hc        1 MOL      0.115605
      6 H3          0.2520    6.3990   -2.7440 hc        1 MOL      0.115605
      7 N1          2.5420    5.6380   -2.0320 n         1 MOL     -0.475058
      8 C3          3.8340    5.1740   -1.7440 c3        1 MOL      0.003040
      9 C4          3.9340    4.2320   -0.5470 c         1 MOL      0.547795
     10 O2          3.3960    3.1610   -0.6200 o         1 MOL     -0.520668
     11 C5          4.4190    4.4810   -2.9800 c3        1 MOL     -0.243466
     12 C6          5.9100    4.2180   -2.8510 c         1 MOL      0.698682
     13 O3          6.3420    2.9990   -2.8540 o         1 MOL     -0.728800
     14 O4          6.7550    5.1370   -2.8080 o         1 MOL     -0.728800
     15 H4          2.1430    5.3610   -2.9130 hn        1 MOL      0.272564
     16 H5          4.3270    6.0920   -1.4240 h1        1 MOL      0.043541
     17 H6          4.2080    4.9190   -3.9500 hc        1 MOL      0.050860
     18 H7          3.9740    3.4890   -3.0110 hc        1 MOL      0.050860
     19 N2          4.5120    4.6560    0.5640 n         1 MOL     -0.481804
     20 C7          4.5450    3.8320    1.7910 c3        1 MOL      0.234500
     21 C8          3.0760    3.5580    2.3410 c         1 MOL      0.711939
     22 O5          2.1470    4.2990    2.0270 o         1 MOL     -0.560150
     23 C9          5.3790    4.5580    2.9450 c3        1 MOL     -0.542113
     24 H8          4.9170    5.5760    0.5900 hn        1 MOL      0.321404
     25 H9          4.9230    2.8470    1.5290 h1        1 MOL      0.112495
     26 H10         6.4040    4.7520    2.6390 hc        1 MOL      0.147591
     27 H11         4.8490    5.4780    3.1840 hc        1 MOL      0.147591
     28 H12         5.3240    3.9090    3.8230 hc        1 MOL      0.147591
     29 N3          2.9010    2.4580    3.1000 n         1 MOL     -0.969560
     30 C10         3.8430    1.4870    3.6340 c3        1 MOL      0.565003
     31 C11         4.1570    0.4600    2.5550 c         1 MOL      0.002066
     32 O6          3.4770    0.3720    1.5330 o         1 MOL     -0.296628
     33 C12         3.3000    0.8480    4.9430 c3        1 MOL     -0.239621
     34 C13         2.0230    0.0330    4.7910 c         1 MOL      0.638548
     35 O7          1.7440   -0.4770    3.6670 o         1 MOL     -0.650374
     36 O8          1.3480   -0.2650    5.8110 o         1 MOL     -0.650374
     37 H13         2.0370    2.5680    3.6050 hn        1 MOL      0.415400
     38 H14         4.7390    2.0350    3.9130 h1        1 MOL     -0.059499
     39 H15         3.2930    1.6250    5.7050 hc        1 MOL      0.055593
     40 H16         4.1650    0.3230    5.3590 hc        1 MOL      0.055593
     41 N4          5.2930   -0.2550    2.7560 n         1 MOL     -0.279417
     42 C14         6.0330   -1.0110    1.7220 c3        1 MOL      0.019695
     43 C15         6.7740   -0.2360    0.6440 c         1 MOL      0.498571
     44 O9          6.9150    0.9790    0.7510 o         1 MOL     -0.512547
     45 H17         5.6710   -0.1030    3.6730 hn        1 MOL      0.241431
     46 H18         5.3370   -1.6020    1.1380 h1        1 MOL      0.065478
     47 H19         6.6360   -1.7720    2.2240 h1        1 MOL      0.065478
     48 N5          7.1420   -0.8440   -0.5310 n         1 MOL     -0.337378
     49 C16         7.2960   -2.2510   -0.7210 c3        1 MOL      0.048864
     50 C17         6.3260   -2.8680   -1.8010 c         1 MOL      0.523955
     51 O10         6.3110   -4.1120   -2.0500 o         1 MOL     -0.552096
     52 C18         8.7140   -2.5310   -1.0360 c3        1 MOL     -0.320438
     53 C19         9.6330   -1.9770    0.0280 c         1 MOL      0.719307
     54 N6         10.6130   -1.1900   -0.3760 n         1 MOL     -0.839814
     55 O11         9.5020   -2.2380    1.2070 o         1 MOL     -0.568085
     56 H20         7.4910   -0.2150   -1.2400 hn        1 MOL      0.288730
     57 H21         7.0950   -2.7520    0.2230 h1        1 MOL      0.071256
     58 H22         9.0130   -2.0840   -1.9930 hc        1 MOL      0.096322
     59 H23         8.8170   -3.6210   -1.0740 hc        1 MOL      0.096322
     60 H24        10.7320   -0.8080   -1.3040 hn        1 MOL      0.378216
     61 H25        11.3550   -0.9720    0.2810 hn        1 MOL      0.378216
     62 N7          5.4720   -1.9860   -2.3710 n         1 MOL     -0.366606
     63 C20         4.5040   -2.3020   -3.5220 c3        1 MOL     -0.083441
     64 C21         3.3430   -3.3210   -3.3620 c         1 MOL      0.395332
     65 O12         2.7880   -3.7560   -4.3790 o         1 MOL     -0.526683
     66 H26         5.4650   -1.0190   -2.0760 hn        1 MOL      0.238175
     67 H27         5.0770   -2.4690   -4.4250 h1        1 MOL      0.100185
     68 H28         4.0120   -1.3500   -3.7290 h1        1 MOL      0.100185
     69 N8          2.9650   -3.6140   -2.1070 n         1 MOL      0.011461
     70 C22         1.7500   -4.4920   -1.8100 c3        1 MOL     -0.468203
     71 C23         0.5450   -3.6420   -1.3410 c         1 MOL      0.700452
     72 O13         0.6320   -2.7670   -0.4900 o         1 MOL     -0.606270
     73 C24         2.0640   -5.5670   -0.7550 c3        1 MOL      0.593559
     74 C25         3.2290   -6.4700   -1.1810 c3        1 MOL     -0.531120
     75 O14         2.4560   -5.1060    0.4870 oh        1 MOL     -0.646149
     76 H29         3.4430   -3.2490   -1.2870 hn        1 MOL      0.195657
     77 H30         1.4160   -5.0440   -2.6880 h1        1 MOL      0.139661
     78 H31         1.1800   -6.1760   -0.5740 h1        1 MOL     -0.040163
     79 H32         1.8460   -5.5410    1.0830 ho        1 MOL      0.436693
     80 H33         4.1200   -5.8470   -1.1410 hc        1 MOL      0.132535
     81 H34         3.3290   -7.2560   -0.4230 hc        1 MOL      0.132535
     82 H35         3.0950   -6.8840   -2.1750 hc        1 MOL      0.132535
     83 N9         -0.6810   -4.0350   -1.6730 n         1 MOL     -0.310074
     84 C26        -1.9040   -3.3850   -1.3880 c3        1 MOL     -0.553210
     85 C27        -2.3990   -3.7040    0.0390 c         1 MOL      0.687568
     86 O15        -2.4350   -4.9070    0.4470 o         1 MOL     -0.533493
     87 C28        -3.0200   -3.7670   -2.4190 c3        1 MOL      0.320215
     88 C29        -4.3530   -3.0170   -2.2020 c3        1 MOL     -0.040236
     89 C30        -2.5140   -3.3930   -3.8270 c3        1 MOL     -0.127138
     90 C31        -5.4080   -3.1970   -3.3370 c3        1 MOL     -0.126776
     91 H36        -0.6720   -4.7500   -2.3860 hn        1 MOL      0.264395
     92 H37        -1.8810   -2.3010   -1.4750 h1        1 MOL      0.264615
     93 H38        -3.1450   -4.8460   -2.4120 hc        1 MOL     -0.016918
     94 H39        -4.1310   -1.9750   -1.9800 hc        1 MOL      0.017982
     95 H40        -4.7840   -3.4330   -1.2980 hc        1 MOL      0.017982
     96 H41        -2.4950   -2.3270   -4.0530 hc        1 MOL      0.018978
     97 H42        -1.5370   -3.7960   -4.1130 hc        1 MOL      0.018978
     98 H43        -3.2010   -3.9390   -4.4910 hc        1 MOL      0.018978
     99 H44        -6.3040   -2.6200   -3.0990 hc        1 MOL      0.019512
    100 H45        -4.9970   -2.7400   -4.2380 hc        1 MOL      0.019512
    101 H46        -5.6210   -4.2370   -3.6000 hc        1 MOL      0.019512
    102 N10        -2.9530   -2.6860    0.7600 n         1 MOL     -0.521156
    103 C32        -3.5670   -2.7230    2.0620 c3        1 MOL      0.329081
    104 C33        -4.8810   -1.9590    2.2550 c         1 MOL      0.317041
    105 O16        -5.4840   -2.1160    3.3160 o         1 MOL     -0.543143
    106 C34        -2.5910   -2.3780    3.1560 c3        1 MOL     -0.231612
    107 C35        -1.3230   -3.2380    3.1470 c         1 MOL      0.675049
    108 O17        -1.3700   -4.4180    3.5190 o         1 MOL     -0.689909
    109 O18        -0.2990   -2.7270    2.6440 o         1 MOL     -0.689909
    110 H47        -2.9110   -1.7560    0.3660 hn        1 MOL      0.229589
    111 H48        -3.8190   -3.7670    2.1890 h1        1 MOL      0.015413
    112 H49        -3.1170   -2.5510    4.0950 hc        1 MOL      0.059936
    113 H50        -2.3130   -1.3610    2.9010 hc        1 MOL      0.059936
    114 N11        -5.2220   -1.0180    1.3920 n         1 MOL     -0.404449
    115 C36        -6.5640   -0.4390    1.4190 c3        1 MOL      0.575669
    116 C37        -6.4380    1.0640    0.8360 c         1 MOL      0.144194
    117 O19        -7.0430    1.3730   -0.1870 o         1 MOL     -0.456373
    118 C38        -7.4890   -1.2790    0.6070 c3        1 MOL     -0.374951
    119 C39        -9.0070   -0.9310    0.5440 ca        1 MOL      0.208125
    120 C40        -9.6170   -0.4290    1.6870 ca        1 MOL     -0.225043
    121 C41        -9.7630   -1.1460   -0.6030 ca        1 MOL     -0.225043
    122 C42       -10.9730   -0.0600    1.6850 ca        1 MOL     -0.047833
    123 C43       -11.1900   -0.9170   -0.5950 ca        1 MOL     -0.047833
    124 C44       -11.7900   -0.3820    0.5610 ca        1 MOL     -0.228161
    125 H51        -4.6110   -0.8130    0.6170 hn        1 MOL      0.164001
    126 H52        -6.9740   -0.3640    2.4280 h1        1 MOL     -0.019242
    127 H53        -7.3670   -2.1970    1.1670 hc        1 MOL      0.110139
    128 H54        -7.2120   -1.4810   -0.4320 hc        1 MOL      0.110139
    129 H55        -9.0210   -0.3770    2.5760 ha        1 MOL      0.124996
    130 H56        -9.3140   -1.4510   -1.5360 ha        1 MOL      0.124996
    131 H57       -11.3910    0.4140    2.5520 ha        1 MOL      0.091243
    132 H58       -11.7880   -1.1100   -1.4760 ha        1 MOL      0.091243
    133 H59       -12.8060   -0.0440    0.5250 ha        1 MOL      0.122953
    134 N12        -5.5480    1.9760    1.4000 n         1 MOL     -0.075487
    135 C45        -5.3630    3.3650    0.8590 c3        1 MOL      0.176421
    136 C46        -4.9310    3.5570   -0.5920 c         1 MOL      0.163743
    137 O20        -5.3450    4.5390   -1.2060 o         1 MOL     -0.455365
    138 C47        -4.2190    3.9780    1.7200 c3        1 MOL     -0.108077
    139 C48        -4.3630    3.1570    3.0540 c3        1 MOL     -0.210664
    140 C49        -4.8350    1.7880    2.6710 c3        1 MOL     -0.107445
    141 H60        -6.2920    3.9400    0.9860 h1        1 MOL      0.050435
    142 H61        -3.2120    3.8090    1.3350 hc        1 MOL      0.059049
    143 H62        -4.4390    5.0320    1.8810 hc        1 MOL      0.059049
    144 H63        -3.3610    3.1330    3.4860 hc        1 MOL      0.090632
    145 H64        -4.9750    3.5580    3.8490 hc        1 MOL      0.090632
    146 H65        -3.9420    1.2600    2.3210 h1        1 MOL      0.100232
    147 H66        -5.4420    1.2450    3.3920 h1        1 MOL      0.100232
    148 N13        -4.3460    2.5350   -1.2820 n         1 MOL      0.056911
    149 C50        -3.9230    2.6520   -2.6550 c3        1 MOL     -0.169767
    150 C51        -5.1270    2.6910   -3.5240 c         1 MOL      0.362048
    151 O21        -5.3320    3.7160   -4.2140 o         1 MOL     -0.507661
    152 C52        -3.0390    1.4710   -3.0060 c3        1 MOL     -0.013488
    153 C53        -1.9070    1.1250   -2.0430 c3        1 MOL      0.082345
    154 C54        -2.2460    0.2260   -0.8510 c         1 MOL      0.386287
    155 O22        -1.3320   -0.2680   -0.1260 o         1 MOL     -0.538165
    156 O23        -3.4890    0.0920   -0.5090 o         1 MOL     -0.538165
    157 H67        -4.0300    1.7610   -0.7070 hn        1 MOL      0.128378
    158 H68        -3.3740    3.5770   -2.8490 h1        1 MOL      0.104215
    159 H69        -2.5730    1.6920   -3.9640 hc        1 MOL      0.016673
    160 H70        -3.6560    0.5700   -3.1010 hc        1 MOL      0.016673
    161 H71        -1.5410    2.0600   -1.6410 hc        1 MOL     -0.013483
    162 H72        -1.1190    0.6180   -2.5980 hc        1 MOL     -0.013483
    163 N14        -6.0470    1.7360   -3.3430 n         1 MOL     -0.124347
    164 C55        -7.3110    1.7150   -4.1570 c3        1 MOL     -0.206847
    165 H73        -8.1180    2.1710   -3.5830 h1        1 MOL      0.091386
    166 H74        -7.1590    2.2760   -5.0790 h1        1 MOL      0.091386
    167 H75        -7.5730    0.6850   -4.3970 h1        1 MOL      0.091386
    168 H76        -5.7430    0.9440   -2.8050 hn        1 MOL      0.205164
    169 Ca1         0.8520   -0.7400    1.2990 Ca        1 MOL      1.670342
    170 O24         2.6220   -0.6470   -0.8880 oh        1 MOL     -0.856007
    171 H77         3.2390    0.0430   -0.6790 ho        1 MOL      0.405637
    172 H78         2.5060   -0.5920   -1.8350 ho        1 MOL      0.405637
    173 O25         2.9280   -2.5670    1.3370 oh        1 MOL     -0.856007
    174 H79         2.5960   -3.4040    1.0160 ho        1 MOL      0.405637
    175 H80         3.7570   -2.7820    1.7730 ho        1 MOL      0.405637
    176 O26        -1.3830    1.0800    2.3280 oh        1 MOL     -0.856007
    177 H81        -1.2930    2.0220    2.1970 ho        1 MOL      0.405637
    178 H82        -1.6920    0.7490    1.4860 ho        1 MOL      0.405637
    179 O27         1.1410    1.4650   -0.2480 oh        1 MOL     -0.856007
    180 H83         0.4420    2.0630   -0.4990 ho        1 MOL      0.405637
    181 H84         1.9210    2.0220   -0.1800 ho        1 MOL      0.405637
@<TRIPOS>BOND
     1    1    2 1   
     2    1    4 1   
     3    1    5 1   
     4    1    6 1   
     5    2    3 2   
     6    2    7 1   
     7    7    8 1   
     8    7   15 1   
     9    8    9 1   
    10    8   11 1   
    11    8   16 1   
    12    9   10 2   
    13    9   19 1   
    14   11   12 1   
    15   11   17 1   
    16   11   18 1   
    17   12   13 1   
    18   12   14 1   
    19   19   20 1   
    20   19   24 1   
    21   20   21 1   
    22   20   23 1   
    23   20   25 1   
    24   21   22 2   
    25   21   29 1   
    26   23   26 1   
    27   23   27 1   
    28   23   28 1   
    29   29   30 1   
    30   29   37 1   
    31   30   31 1   
    32   30   33 1   
    33   30   38 1   
    34   31   32 2   
    35   31   41 1   
    36   33   34 1   
    37   33   39 1   
    38   33   40 1   
    39   34   35 1   
    40   34   36 1   
    41   41   42 1   
    42   41   45 1   
    43   42   43 1   
    44   42   46 1   
    45   42   47 1   
    46   43   44 2   
    47   43   48 1   
    48   48   49 1   
    49   48   56 1   
    50   49   50 1   
    51   49   52 1   
    52   49   57 1   
    53   50   51 2   
    54   50   62 1   
    55   52   53 1   
    56   52   58 1   
    57   52   59 1   
    58   53   54 1   
    59   53   55 2   
    60   54   60 1   
    61   54   61 1   
    62   62   63 1   
    63   62   66 1   
    64   63   64 1   
    65   63   67 1   
    66   63   68 1   
    67   64   65 2   
    68   64   69 1   
    69   69   70 1   
    70   69   76 1   
    71   70   71 1   
    72   70   73 1   
    73   70   77 1   
    74   71   72 2   
    75   71   83 1   
    76   73   74 1   
    77   73   75 1   
    78   73   78 1   
    79   74   80 1   
    80   74   81 1   
    81   74   82 1   
    82   75   79 1   
    83   83   84 1   
    84   83   91 1   
    85   84   85 1   
    86   84   87 1   
    87   84   92 1   
    88   85   86 2   
    89   85  102 1   
    90   87   88 1   
    91   87   89 1   
    92   87   93 1   
    93   88   90 1   
    94   88   94 1   
    95   88   95 1   
    96   89   96 1   
    97   89   97 1   
    98   89   98 1   
    99   90   99 1   
   100   90  100 1   
   101   90  101 1   
   102  102  103 1   
   103  102  110 1   
   104  103  104 1   
   105  103  106 1   
   106  103  111 1   
   107  104  105 2   
   108  104  114 1   
   109  106  107 1   
   110  106  112 1   
   111  106  113 1   
   112  107  108 1   
   113  107  109 1   
   114  114  115 1   
   115  114  125 1   
   116  115  116 1   
   117  115  118 1   
   118  115  126 1   
   119  116  117 2   
   120  116  134 1   
   121  118  119 1   
   122  118  127 1   
   123  118  128 1   
   124  119  120 ar  
   125  119  121 ar  
   126  120  122 ar  
   127  120  129 1   
   128  121  123 ar  
   129  121  130 1   
   130  122  124 ar  
   131  122  131 1   
   132  123  124 ar  
   133  123  132 1   
   134  124  133 1   
   135  134  135 1   
   136  134  140 1   
   137  135  136 1   
   138  135  138 1   
   139  135  141 1   
   140  136  137 2   
   141  136  148 1   
   142  138  139 1   
   143  138  142 1   
   144  138  143 1   
   145  139  140 1   
   146  139  144 1   
   147  139  145 1   
   148  140  146 1   
   149  140  147 1   
   150  148  149 1   
   151  148  157 1   
   152  149  150 1   
   153  149  152 1   
   154  149  158 1   
   155  150  151 2   
   156  150  163 1   
   157  152  153 1   
   158  152  159 1   
   159  152  160 1   
   160  153  154 1   
   161  153  161 1   
   162  153  162 1   
   163  154  155 1   
   164  154  156 1   
   165  163  164 1   
   166  163  168 1   
   167  164  165 1   
   168  164  166 1   
   169  164  167 1   
   170  170  171 1   
   171  170  172 1   
   172  173  174 1   
   173  173  175 1   
   174  176  177 1   
   175  176  178 1   
   176  179  180 1   
   177  179  181 1   
@<TRIPOS>SUBSTRUCTURE
     1 MOL         1 TEMP              0 ****  ****    0 ROOT
