@<TRIPOS>MOLECULE
MOL
  179   176     1     0     0
SMALL
resp


@<TRIPOS>ATOM
      1 C1          2.2720   -4.1200    6.2800 c3        1 MOL     -0.444353
      2 C2          2.0700   -3.9620    4.7550 c         1 MOL      0.767703
      3 O1          1.1930   -4.5570    4.1280 o         1 MOL     -0.619771
      4 H1          1.7440   -5.0090    6.6260 hc        1 MOL      0.118317
      5 H2          3.3350   -4.2220    6.4970 hc        1 MOL      0.118317
      6 H3          1.8790   -3.2420    6.7920 hc        1 MOL      0.118317
      7 N1          3.0670   -3.3130    4.2400 n         1 MOL     -0.539196
      8 C3          3.0910   -2.9850    2.7740 c3        1 MOL     -0.029293
      9 C4          3.5130   -4.2090    1.9240 c         1 MOL      0.657333
     10 O2          4.5010   -4.9090    2.2690 o         1 MOL     -0.571326
     11 C5          4.0580   -1.8030    2.6200 c3        1 MOL     -0.054258
     12 C6          3.8760   -1.1250    1.3140 c         1 MOL      0.552407
     13 O3          4.2680    0.0410    1.0640 o         1 MOL     -0.677947
     14 O4          3.4880   -1.6940    0.2810 o         1 MOL     -0.677947
     15 H4          3.7460   -3.0000    4.9080 hn        1 MOL      0.312680
     16 H5          2.1270   -2.6250    2.4210 h1        1 MOL      0.018038
     17 H6          5.1110   -2.0880    2.6990 hc        1 MOL      0.060440
     18 H7          3.7810   -1.0430    3.3470 hc        1 MOL      0.060440
     19 N2          2.7630   -4.5010    0.8710 n         1 MOL     -0.364652
     20 C7          3.1950   -5.5380   -0.1060 c3        1 MOL     -0.057057
     21 C8          4.1660   -5.1690   -1.2640 c         1 MOL      0.457847
     22 O5          4.5120   -6.0670   -2.0210 o         1 MOL     -0.510838
     23 C9          1.9400   -6.1640   -0.7030 c3        1 MOL     -0.071357
     24 C10         1.1040   -5.2270   -1.5730 c3        1 MOL     -0.182241
     25 C11        -0.3640   -5.5850   -1.6030 c3        1 MOL      0.107793
     26 C12        -0.9420   -4.4920   -2.5090 c3        1 MOL     -0.075956
     27 N3         -2.4330   -4.6450   -2.6180 n4        1 MOL     -0.159641
     28 H8          2.0370   -3.8490    0.5920 hn        1 MOL      0.197164
     29 H9          3.6780   -6.3230    0.4640 h1        1 MOL      0.144100
     30 H10         1.3410   -6.5150    0.1360 hc        1 MOL      0.046536
     31 H11         2.2080   -7.0360   -1.2980 hc        1 MOL      0.046536
     32 H12         1.4510   -5.3160   -2.6050 hc        1 MOL      0.113127
     33 H13         1.2280   -4.1770   -1.3330 hc        1 MOL      0.113127
     34 H14        -0.7840   -5.6240   -0.6020 hc        1 MOL      0.012255
     35 H15        -0.5170   -6.5450   -2.1060 hc        1 MOL      0.012255
     36 H16        -0.3890   -4.3590   -3.4400 hx        1 MOL      0.068877
     37 H17        -0.7560   -3.6410   -1.8480 hx        1 MOL      0.068877
     38 H18        -2.8520   -3.7530   -2.8700 hn        1 MOL      0.233378
     39 H19        -2.7550   -5.1840   -3.4110 hn        1 MOL      0.233378
     40 H20        -2.9170   -5.1220   -1.8780 hn        1 MOL      0.233378
     41 N4          4.5380   -3.8820   -1.3980 n         1 MOL     -0.305016
     42 C13         5.4820   -3.4140   -2.3480 c3        1 MOL      0.022499
     43 C14         6.6050   -2.5480   -1.7080 c         1 MOL      0.404897
     44 O6          7.5890   -2.1930   -2.2890 o         1 MOL     -0.517290
     45 C15         4.7150   -2.6480   -3.4410 c3        1 MOL     -0.212618
     46 C16         3.8960   -1.5710   -2.7510 c         1 MOL      0.914050
     47 O7          2.6540   -1.6170   -2.7050 o         1 MOL     -0.860722
     48 O8          4.3910   -0.5450   -2.2810 o         1 MOL     -0.860722
     49 H21         4.0740   -3.2070   -0.8160 hn        1 MOL      0.226901
     50 H22         5.9950   -4.2360   -2.8440 h1        1 MOL      0.114799
     51 H23         4.0130   -3.3070   -3.9600 hc        1 MOL      0.073494
     52 H24         5.3880   -2.2070   -4.1660 hc        1 MOL      0.073494
     53 N5          6.3940   -2.1250   -0.4820 n         1 MOL     -0.111824
     54 C17         7.2540   -1.2320    0.3260 c3        1 MOL     -0.298493
     55 C18         7.3960    0.1620   -0.2050 c         1 MOL      0.502935
     56 O9          8.3820    0.8120    0.2140 o         1 MOL     -0.591698
     57 H25         5.4780   -2.3530   -0.1310 hn        1 MOL      0.080271
     58 H26         8.2690   -1.6260    0.2890 h1        1 MOL      0.160540
     59 H27         6.7840   -1.2220    1.3130 h1        1 MOL      0.160540
     60 N6          6.6300    0.6950   -1.1090 n         1 MOL      0.066424
     61 C19         6.7590    2.1080   -1.6010 c3        1 MOL     -0.018554
     62 C20         5.5530    2.9070   -1.1980 c         1 MOL      0.479110
     63 O10         4.5510    2.3810   -0.7200 o         1 MOL     -0.548001
     64 C21         6.9160    2.0400   -3.0860 c3        1 MOL     -0.150644
     65 C22         8.1430    1.3830   -3.6400 c         1 MOL      0.651259
     66 N7          8.3680    0.0920   -3.5020 n         1 MOL     -0.830909
     67 O11         9.0010    2.1150   -4.2270 o         1 MOL     -0.600483
     68 H28         5.8030    0.2290   -1.4620 hn        1 MOL      0.089555
     69 H29         7.6440    2.6060   -1.1960 h1        1 MOL      0.077444
     70 H30         6.8380    3.0420   -3.5220 hc        1 MOL      0.025336
     71 H31         6.1100    1.4460   -3.5230 hc        1 MOL      0.025336
     72 H32         7.6760   -0.4380   -2.9920 hn        1 MOL      0.397019
     73 H33         9.2340   -0.2390   -3.8900 hn        1 MOL      0.397019
     74 N8          5.5530    4.2240   -1.3910 n         1 MOL     -0.362763
     75 C23         4.3870    5.1360   -1.2570 c3        1 MOL     -0.139502
     76 C24         3.5560    4.9470    0.0590 c         1 MOL      0.560291
     77 O12         4.0930    4.8440    1.1790 o         1 MOL     -0.494381
     78 H34         6.4380    4.6190   -1.6870 hn        1 MOL      0.312991
     79 H35         3.7670    5.2250   -2.1560 h1        1 MOL      0.098265
     80 H36         4.7840    6.1420   -1.1490 h1        1 MOL      0.098265
     81 N9          2.2390    4.8880   -0.0500 n         1 MOL     -0.548181
     82 C25         1.1930    4.6120    1.0640 c3        1 MOL      0.033003
     83 C26         1.1870    3.0940    1.3300 c         1 MOL      0.661531
     84 O13         2.0000    2.3560    0.7830 o         1 MOL     -0.454398
     85 C27        -0.2190    5.1340    0.5270 c3        1 MOL     -0.131804
     86 C28        -0.3340    6.6800    0.4120 ca        1 MOL      0.112091
     87 C29        -0.7620    7.2980   -0.7800 ca        1 MOL     -0.218772
     88 C30        -0.0450    7.4510    1.5150 ca        1 MOL     -0.218772
     89 C31        -0.7770    8.7110   -0.8560 ca        1 MOL     -0.156491
     90 C32        -0.0590    8.8690    1.4520 ca        1 MOL     -0.156491
     91 C33        -0.4030    9.5330    0.2310 ca        1 MOL      0.229082
     92 O14        -0.3840   10.9130    0.1120 oh        1 MOL     -0.454987
     93 H37         1.8440    5.0410   -0.9650 hn        1 MOL      0.283059
     94 H38         1.4590    5.2590    1.9050 h1        1 MOL      0.134448
     95 H39        -1.0260    4.8270    1.1850 hc        1 MOL      0.063075
     96 H40        -0.4750    4.5620   -0.3640 hc        1 MOL      0.063075
     97 H41        -1.0170    6.7470   -1.6630 ha        1 MOL      0.132890
     98 H42         0.1970    7.0020    2.4640 ha        1 MOL      0.132890
     99 H43        -0.9230    9.1340   -1.8320 ha        1 MOL      0.137386
    100 H44         0.2730    9.5080    2.2540 ha        1 MOL      0.137386
    101 H45        -0.4480   11.2690   -0.7790 ho        1 MOL      0.365029
    102 N10         0.4760    2.6740    2.3370 n         1 MOL     -0.708466
    103 C34         0.2490    1.3540    2.9910 c3        1 MOL      0.023732
    104 C35        -0.0320    0.1940    1.9660 c         1 MOL      0.547804
    105 O15         0.8330   -0.2720    1.2880 o         1 MOL     -0.463682
    106 C36         1.4220    0.9990    3.9520 c3        1 MOL      0.355727
    107 C37         1.2650   -0.3900    4.6860 c3        1 MOL     -0.161640
    108 C38         1.7140    2.1130    5.0380 c3        1 MOL     -0.296847
    109 C39         0.2650   -0.4380    5.8370 c3        1 MOL     -0.297473
    110 H46         0.0250    3.4530    2.7830 hn        1 MOL      0.321114
    111 H47        -0.6230    1.5270    3.6240 h1        1 MOL      0.078844
    112 H48         2.2710    0.8940    3.2740 hc        1 MOL     -0.025187
    113 H49         2.2320   -0.6390    5.1270 hc        1 MOL      0.071422
    114 H50         0.9800   -1.1320    3.9410 hc        1 MOL      0.071422
    115 H51         2.0170    3.0420    4.5560 hc        1 MOL      0.077832
    116 H52         0.8000    2.2770    5.5940 hc        1 MOL      0.077832
    117 H53         2.5800    1.8030    5.6210 hc        1 MOL      0.077832
    118 H54        -0.6890   -0.0030    5.5540 hc        1 MOL      0.075436
    119 H55         0.0780   -1.4610    6.1710 hc        1 MOL      0.075436
    120 H56         0.7390    0.1650    6.6180 hc        1 MOL      0.075436
    121 N11        -1.3300   -0.3220    1.9880 n         1 MOL     -0.519926
    122 C40        -1.7570   -1.5020    1.1690 c3        1 MOL      0.306316
    123 C41        -3.3020   -1.6070    0.9040 c         1 MOL      0.493992
    124 O16        -3.8470   -2.7180    0.8140 o         1 MOL     -0.519812
    125 C42        -1.2320   -2.7410    1.9060 c3        1 MOL     -0.213958
    126 O17        -0.3900   -3.5590    1.0840 oh        1 MOL     -0.521642
    127 H57        -1.9700    0.1650    2.5980 hn        1 MOL      0.262797
    128 H58        -1.2550   -1.3980    0.2070 h1        1 MOL      0.011435
    129 H59        -2.0050   -3.3960    2.2940 h1        1 MOL      0.132666
    130 H60        -0.5330   -2.4740    2.7010 h1        1 MOL      0.132666
    131 H61        -0.2000   -4.3720    1.5650 ho        1 MOL      0.425530
    132 N12        -3.9800   -0.4910    0.6510 n         1 MOL     -0.650263
    133 C43        -5.3340   -0.3210    0.1900 c3        1 MOL      0.505468
    134 C44        -5.4680    0.3420   -1.1960 c         1 MOL      0.263341
    135 O18        -4.5760    1.0770   -1.7040 o         1 MOL     -0.532991
    136 C45        -6.0520    0.4830    1.2270 c3        1 MOL     -0.192438
    137 H62        -3.4510    0.3550    0.8070 hn        1 MOL      0.261867
    138 H63        -5.8130   -1.3040    0.1480 h1        1 MOL      0.012843
    139 H64        -6.1110   -0.1360    2.1220 hc        1 MOL      0.065066
    140 H65        -5.5590    1.4290    1.4400 hc        1 MOL      0.065066
    141 H66        -7.0580    0.6660    0.8420 hc        1 MOL      0.065066
    142 N13        -6.5500    0.2140   -1.9310 n         1 MOL     -0.433437
    143 C46        -7.8230   -0.3290   -1.6450 c3        1 MOL      0.439367
    144 C47        -8.9470    0.5540   -2.2790 c         1 MOL      0.362192
    145 O19        -8.6450    1.1920   -3.2670 o         1 MOL     -0.498904
    146 C48        -7.9230   -1.7350   -2.3690 c3        1 MOL     -0.310035
    147 H67        -6.5250    0.6290   -2.8490 hn        1 MOL      0.303556
    148 H68        -8.0240   -0.4840   -0.5810 h1        1 MOL     -0.075451
    149 H69        -7.8570   -1.6880   -3.4590 hc        1 MOL      0.077404
    150 H70        -7.1750   -2.4350   -1.9990 hc        1 MOL      0.077404
    151 H71        -8.9080   -2.0780   -2.0470 hc        1 MOL      0.077404
    152 N14       -10.2310    0.4450   -1.8240 n         1 MOL     -0.494857
    153 C49       -10.6860   -0.2190   -0.5450 c3        1 MOL     -0.022575
    154 C50       -10.1690    0.5390    0.6670 c         1 MOL      0.499309
    155 O20        -9.6500   -0.1080    1.5690 o         1 MOL     -0.519887
    156 C51       -12.1830   -0.4480   -0.5580 c3        1 MOL     -0.041841
    157 C52       -12.6640   -1.4840   -1.6060 c3        1 MOL     -0.109441
    158 C53       -13.9320   -2.3220   -1.2530 c         1 MOL      0.676416
    159 O21       -13.8770   -3.6060   -1.2110 o         1 MOL     -0.649842
    160 O22       -14.9840   -1.7460   -1.0670 o         1 MOL     -0.649842
    161 H72       -10.8300    1.1470   -2.2280 hn        1 MOL      0.343869
    162 H73       -10.1930   -1.1780   -0.3950 h1        1 MOL      0.116332
    163 H74       -12.6210    0.5380   -0.7520 hc        1 MOL      0.041687
    164 H75       -12.4370   -0.7300    0.4640 hc        1 MOL      0.041687
    165 H76       -11.8770   -2.2160   -1.7390 hc        1 MOL      0.013415
    166 H77       -12.8530   -0.9890   -2.5670 hc        1 MOL      0.013415
    167 N15       -10.2440    1.8740    0.6310 n         1 MOL     -0.347689
    168 C54        -9.6640    2.7770    1.5990 c3        1 MOL     -0.103327
    169 H78        -9.2730    3.6570    1.0860 h1        1 MOL      0.077438
    170 H79       -10.4270    3.0840    2.3140 h1        1 MOL      0.077438
    171 H80        -8.8520    2.2750    2.1250 h1        1 MOL      0.077438
    172 H81       -10.7600    2.2820   -0.1330 hn        1 MOL      0.268531
    173 Ca1         2.5430    0.5750   -1.1080 Ca        1 MOL      1.791643
    174 O23         0.5390    2.3280   -1.7340 oh        1 MOL     -0.883879
    175 H82         0.5890    2.5470   -2.6670 ho        1 MOL      0.432082
    176 H83        -0.3750    2.0980   -1.5780 ho        1 MOL      0.432082
    177 O24         0.1640   -0.6680   -1.8540 oh        1 MOL     -0.883879
    178 H84         0.6930   -1.3980   -2.1800 ho        1 MOL      0.432082
    179 H85        -0.7410   -0.9530   -1.9880 ho        1 MOL      0.432082
@<TRIPOS>BOND
     1    1    2 1   
     2    1    4 1   
     3    1    5 1   
     4    1    6 1   
     5    2    3 2   
     6    2    7 1   
     7    7    8 1   
     8    7   15 1   
     9    8    9 1   
    10    8   11 1   
    11    8   16 1   
    12    9   10 2   
    13    9   19 1   
    14   11   12 1   
    15   11   17 1   
    16   11   18 1   
    17   12   13 1   
    18   12   14 1   
    19   19   20 1   
    20   19   28 1   
    21   20   21 1   
    22   20   23 1   
    23   20   29 1   
    24   21   22 2   
    25   21   41 1   
    26   23   24 1   
    27   23   30 1   
    28   23   31 1   
    29   24   25 1   
    30   24   32 1   
    31   24   33 1   
    32   25   26 1   
    33   25   34 1   
    34   25   35 1   
    35   26   27 1   
    36   26   36 1   
    37   26   37 1   
    38   27   38 1   
    39   27   39 1   
    40   27   40 1   
    41   41   42 1   
    42   41   49 1   
    43   42   43 1   
    44   42   45 1   
    45   42   50 1   
    46   43   44 2   
    47   43   53 1   
    48   45   46 1   
    49   45   51 1   
    50   45   52 1   
    51   46   47 1   
    52   46   48 1   
    53   53   54 1   
    54   53   57 1   
    55   54   55 1   
    56   54   58 1   
    57   54   59 1   
    58   55   56 2   
    59   55   60 1   
    60   60   61 1   
    61   60   68 1   
    62   61   62 1   
    63   61   64 1   
    64   61   69 1   
    65   62   63 2   
    66   62   74 1   
    67   64   65 1   
    68   64   70 1   
    69   64   71 1   
    70   65   66 1   
    71   65   67 2   
    72   66   72 1   
    73   66   73 1   
    74   74   75 1   
    75   74   78 1   
    76   75   76 1   
    77   75   79 1   
    78   75   80 1   
    79   76   77 2   
    80   76   81 1   
    81   81   82 1   
    82   81   93 1   
    83   82   83 1   
    84   82   85 1   
    85   82   94 1   
    86   83   84 2   
    87   83  102 1   
    88   85   86 1   
    89   85   95 1   
    90   85   96 1   
    91   86   87 ar  
    92   86   88 ar  
    93   87   89 ar  
    94   87   97 1   
    95   88   90 ar  
    96   88   98 1   
    97   89   91 ar  
    98   89   99 1   
    99   90   91 ar  
   100   90  100 1   
   101   91   92 1   
   102   92  101 1   
   103  102  103 1   
   104  102  110 1   
   105  103  104 1   
   106  103  106 1   
   107  103  111 1   
   108  104  105 2   
   109  104  121 1   
   110  106  107 1   
   111  106  108 1   
   112  106  112 1   
   113  107  109 1   
   114  107  113 1   
   115  107  114 1   
   116  108  115 1   
   117  108  116 1   
   118  108  117 1   
   119  109  118 1   
   120  109  119 1   
   121  109  120 1   
   122  121  122 1   
   123  121  127 1   
   124  122  123 1   
   125  122  125 1   
   126  122  128 1   
   127  123  124 2   
   128  123  132 1   
   129  125  126 1   
   130  125  129 1   
   131  125  130 1   
   132  126  131 1   
   133  132  133 1   
   134  132  137 1   
   135  133  134 1   
   136  133  136 1   
   137  133  138 1   
   138  134  135 2   
   139  134  142 1   
   140  136  139 1   
   141  136  140 1   
   142  136  141 1   
   143  142  143 1   
   144  142  147 1   
   145  143  144 1   
   146  143  146 1   
   147  143  148 1   
   148  144  145 2   
   149  144  152 1   
   150  146  149 1   
   151  146  150 1   
   152  146  151 1   
   153  152  153 1   
   154  152  161 1   
   155  153  154 1   
   156  153  156 1   
   157  153  162 1   
   158  154  155 2   
   159  154  167 1   
   160  156  157 1   
   161  156  163 1   
   162  156  164 1   
   163  157  158 1   
   164  157  165 1   
   165  157  166 1   
   166  158  159 1   
   167  158  160 1   
   168  167  168 1   
   169  167  172 1   
   170  168  169 1   
   171  168  170 1   
   172  168  171 1   
   173  174  175 1   
   174  174  176 1   
   175  177  178 1   
   176  177  179 1   
@<TRIPOS>SUBSTRUCTURE
     1 MOL         1 TEMP              0 ****  ****    0 ROOT
