@<TRIPOS>MOLECULE
MOL
  195   189     1     0     0
SMALL
resp


@<TRIPOS>ATOM
      1 C1          1.7300    3.3590    3.3860 c3        1 MOL     -0.534927
      2 C2          1.0360    3.6680    2.0170 c         1 MOL      0.866446
      3 O1          0.2750    2.8870    1.5130 o         1 MOL     -0.501203
      4 H1          1.3030    2.4510    3.8120 hc        1 MOL      0.120986
      5 H2          2.7990    3.2190    3.2290 hc        1 MOL      0.120986
      6 H3          1.5680    4.1920    4.0720 hc        1 MOL      0.120986
      7 N1          1.2100    4.8820    1.4580 n         1 MOL     -0.744251
      8 C3          0.7740    5.3670    0.1290 c3        1 MOL     -0.063730
      9 C4         -0.8030    5.3870   -0.0390 c         1 MOL      0.615836
     10 O2         -1.3300    5.3880   -1.1130 o         1 MOL     -0.505006
     11 C5          1.5510    4.6440   -1.0300 c3        1 MOL     -0.084595
     12 C6          3.1110    4.5520   -0.8360 c         1 MOL      0.728098
     13 O3          3.8120    5.5000   -1.3700 o         1 MOL     -0.781354
     14 O4          3.6880    3.6580   -0.2170 o         1 MOL     -0.781354
     15 H4          1.7310    5.5800    1.9650 hn        1 MOL      0.317439
     16 H5          1.0920    6.3990    0.0410 h1        1 MOL      0.117958
     17 H6          1.3280    5.1260   -1.9840 hc        1 MOL      0.064702
     18 H7          1.1380    3.6290   -1.0780 hc        1 MOL      0.064702
     19 N2         -1.5230    5.4850    1.0880 n         1 MOL     -0.573090
     20 C7         -3.0080    5.4520    1.1760 c3        1 MOL     -0.012284
     21 C8         -3.7020    6.5820    0.3790 c         1 MOL      0.427200
     22 O5         -3.1260    7.6660    0.1250 o         1 MOL     -0.530442
     23 C9         -3.3900    5.5880    2.6770 c3        1 MOL     -0.002919
     24 C10        -2.9700    6.8440    3.3660 c3        1 MOL      0.205733
     25 C11        -2.8780    4.2420    3.4240 c3        1 MOL     -0.317774
     26 C12        -3.6130    7.0050    4.7580 c3        1 MOL     -0.254270
     27 H8         -1.0060    5.4040    1.9530 hn        1 MOL      0.338085
     28 H9         -3.3710    4.4780    0.8490 h1        1 MOL      0.151827
     29 H10        -4.4720    5.5910    2.6330 hc        1 MOL      0.059425
     30 H11        -3.2540    7.6380    2.6750 hc        1 MOL     -0.041542
     31 H12        -1.8930    6.9130    3.4940 hc        1 MOL     -0.041542
     32 H13        -3.2060    3.3490    2.8700 hc        1 MOL      0.081153
     33 H14        -1.7970    4.2400    3.3280 hc        1 MOL      0.081153
     34 H15        -3.2250    4.1830    4.4590 hc        1 MOL      0.081153
     35 H16        -3.3940    6.1970    5.4580 hc        1 MOL      0.049869
     36 H17        -3.3140    7.9820    5.1260 hc        1 MOL      0.049869
     37 H18        -4.6960    7.0210    4.7550 hc        1 MOL      0.049869
     38 N3         -4.8840    6.2930   -0.1620 n         1 MOL     -0.355508
     39 C13        -5.7620    5.1340   -0.0120 c3        1 MOL      0.112725
     40 C14        -5.3610    3.8290   -0.6180 c         1 MOL      0.556974
     41 O6         -5.5900    2.7880   -0.0190 o         1 MOL     -0.630622
     42 C15        -7.1750    5.4330   -0.4280 c3        1 MOL     -0.338632
     43 C16        -7.2710    5.8730   -1.8810 c         1 MOL      0.708112
     44 O7         -6.2480    6.1170   -2.5990 o         1 MOL     -0.706236
     45 O8         -8.4360    6.0180   -2.3180 o         1 MOL     -0.706236
     46 H19        -5.1990    6.9570   -0.8490 hn        1 MOL      0.252179
     47 H20        -5.7820    4.8860    1.0530 h1        1 MOL     -0.005820
     48 H21        -7.6070    6.1120    0.3060 hc        1 MOL      0.089285
     49 H22        -7.8160    4.5450   -0.4160 hc        1 MOL      0.089285
     50 N4         -4.6200    3.8160   -1.7510 n         1 MOL     -0.187876
     51 C17        -4.1120    2.6680   -2.4420 c3        1 MOL     -0.279139
     52 C18        -5.1320    1.6750   -2.9800 c         1 MOL      0.607159
     53 O9         -6.3040    2.0300   -3.2970 o         1 MOL     -0.521319
     54 H23        -4.3730    4.7670   -2.0190 hn        1 MOL      0.267907
     55 H24        -3.5480    2.0690   -1.7180 h1        1 MOL      0.102748
     56 H25        -3.4980    3.0340   -3.2610 h1        1 MOL      0.102748
     57 N5         -4.7750    0.3910   -3.0160 n         1 MOL     -0.449712
     58 C19        -5.6920   -0.6870   -3.3010 c3        1 MOL      0.031021
     59 C20        -6.6440   -0.9500   -2.1520 c         1 MOL      0.395154
     60 O10        -7.7840   -1.3410   -2.3740 o         1 MOL     -0.568382
     61 C21        -4.9500   -1.9000   -3.7590 c3        1 MOL     -0.213448
     62 C22        -3.6980   -2.1650   -2.9760 c         1 MOL      0.738050
     63 O11        -3.7520   -2.5440   -1.7910 o         1 MOL     -0.693499
     64 O12        -2.6040   -1.9210   -3.5100 o         1 MOL     -0.693499
     65 H26        -3.8410    0.0820   -2.7790 hn        1 MOL      0.277989
     66 H27        -6.3270   -0.4600   -4.1590 h1        1 MOL      0.099642
     67 H28        -4.8010   -1.8650   -4.8300 hc        1 MOL      0.041372
     68 H29        -5.5370   -2.8050   -3.5780 hc        1 MOL      0.041372
     69 N6         -6.2680   -0.6880   -0.9260 n         1 MOL     -0.026227
     70 C23        -7.0010   -1.1720    0.2640 c3        1 MOL     -0.440396
     71 C24        -6.6580   -2.5650    0.8440 c         1 MOL      0.537031
     72 O13        -7.2170   -2.8400    1.9360 o         1 MOL     -0.578857
     73 H30        -5.3600   -0.2630   -0.7300 hn        1 MOL      0.227811
     74 H31        -8.0410   -1.1960   -0.0620 h1        1 MOL      0.166485
     75 H32        -6.8710   -0.4430    1.0710 h1        1 MOL      0.166485
     76 N7         -5.8290   -3.3240    0.0780 n         1 MOL      0.022689
     77 C25        -5.5490   -4.7520    0.2010 c3        1 MOL      0.148719
     78 C26        -4.7780   -5.1890    1.4890 c         1 MOL      0.341824
     79 O14        -4.7940   -6.3530    1.8990 o         1 MOL     -0.512082
     80 C27        -6.7300   -5.6500   -0.1480 c3        1 MOL     -0.069747
     81 C28        -7.4450   -5.2880   -1.5180 c3        1 MOL     -0.034117
     82 C29        -8.4530   -6.3580   -1.9890 c         1 MOL      0.642829
     83 N8         -9.1610   -6.0330   -3.0960 n         1 MOL     -0.844946
     84 O15        -8.4420   -7.4860   -1.5290 o         1 MOL     -0.550122
     85 H33        -5.4190   -2.8620   -0.7270 hn        1 MOL     -0.034111
     86 H34        -4.7430   -4.8680   -0.5130 h1        1 MOL      0.073036
     87 H35        -7.4910   -5.6450    0.6260 hc        1 MOL      0.017197
     88 H36        -6.3770   -6.6610   -0.3560 hc        1 MOL      0.017197
     89 H37        -6.6890   -5.1400   -2.2830 hc        1 MOL      0.014488
     90 H38        -7.9740   -4.3410   -1.3480 hc        1 MOL      0.014488
     91 H39        -9.0480   -5.0870   -3.4410 hn        1 MOL      0.367541
     92 H40        -9.6290   -6.7660   -3.6060 hn        1 MOL      0.367541
     93 N9         -4.1420   -4.2180    2.1620 n         1 MOL     -0.224444
     94 C30        -3.4600   -4.3470    3.4590 c3        1 MOL     -0.078746
     95 C31        -2.0580   -3.6260    3.4520 c         1 MOL      0.408461
     96 O16        -1.3150   -3.7360    4.4730 o         1 MOL     -0.538641
     97 C32        -4.2660   -3.8110    4.6500 c3        1 MOL      0.332413
     98 C33        -4.3240   -2.2240    4.5470 c3        1 MOL     -0.342948
     99 C34        -5.6470   -4.2510    4.7530 c3        1 MOL     -0.342948
    100 H41        -4.2840   -3.2970    1.7650 hn        1 MOL      0.137767
    101 H42        -3.3270   -5.4190    3.6100 h1        1 MOL      0.111506
    102 H43        -3.6840   -4.1290    5.5150 hc        1 MOL     -0.038589
    103 H44        -4.8420   -1.7340    5.3660 hc        1 MOL      0.076717
    104 H45        -3.3560   -1.7360    4.6070 hc        1 MOL      0.076717
    105 H46        -4.7450   -1.8340    3.6270 hc        1 MOL      0.076717
    106 H47        -6.2090   -3.7720    3.9550 hc        1 MOL      0.076717
    107 H48        -5.7340   -5.3380    4.6570 hc        1 MOL      0.076717
    108 H49        -6.0610   -3.9390    5.7190 hc        1 MOL      0.076717
    109 N10        -1.5750   -2.9930    2.3620 n         1 MOL     -0.282421
    110 C35        -0.2800   -2.2990    2.2620 c3        1 MOL      0.113681
    111 C36         0.4080   -2.9250    1.0130 c         1 MOL      0.511179
    112 O17        -0.1890   -3.3860    0.0830 o         1 MOL     -0.497898
    113 C37        -0.4310   -0.7530    2.1920 c3        1 MOL     -0.127037
    114 C38        -0.8880   -0.0350    3.3950 c         1 MOL      0.649766
    115 N11        -2.0040    0.6280    3.3390 n         1 MOL     -0.801558
    116 O18        -0.3310   -0.1210    4.4450 o         1 MOL     -0.563433
    117 H50        -2.1280   -3.0510    1.5170 hn        1 MOL      0.191501
    118 H51         0.3290   -2.5490    3.1360 h1        1 MOL      0.061148
    119 H52        -0.9960   -0.4670    1.3040 hc        1 MOL      0.041200
    120 H53         0.5300   -0.3090    1.9230 hc        1 MOL      0.041200
    121 H54        -2.5810    0.7090    2.5020 hn        1 MOL      0.360889
    122 H55        -2.4670    0.9310    4.1920 hn        1 MOL      0.360889
    123 N12         1.7200   -2.9070    1.0880 n         1 MOL     -0.384225
    124 C39         2.5800   -3.3350   -0.0080 c3        1 MOL     -0.131707
    125 C40         4.0230   -3.2850    0.4370 c         1 MOL      0.762830
    126 O19         4.3520   -2.5580    1.3820 o         1 MOL     -0.612579
    127 C41         2.4100   -2.3690   -1.2290 c3        1 MOL     -0.261317
    128 C42         2.8240   -2.9390   -2.5410 ca        1 MOL      0.037147
    129 C43         4.1140   -2.8490   -3.0640 ca        1 MOL     -0.114869
    130 C44         1.8230   -3.5390   -3.2640 ca        1 MOL     -0.114869
    131 C45         4.4050   -3.4120   -4.3140 ca        1 MOL     -0.290828
    132 C46         2.0590   -4.0760   -4.5390 ca        1 MOL     -0.290828
    133 C47         3.3440   -4.0120   -5.0780 ca        1 MOL      0.336588
    134 O20         3.6710   -4.6370   -6.2340 oh        1 MOL     -0.506590
    135 H56         2.1820   -2.6940    1.9530 hn        1 MOL      0.267161
    136 H57         2.2720   -4.3750   -0.1320 h1        1 MOL      0.137359
    137 H58         3.0340   -1.4770   -1.1150 hc        1 MOL      0.152759
    138 H59         1.3780   -2.0260   -1.3130 hc        1 MOL      0.152759
    139 H60         5.0050   -2.4560   -2.5990 ha        1 MOL      0.172147
    140 H61         0.8570   -3.6790   -2.8130 ha        1 MOL      0.172147
    141 H62         5.4070   -3.2940   -4.7080 ha        1 MOL      0.158184
    142 H63         1.2740   -4.6150   -5.0400 ha        1 MOL      0.158184
    143 H64         4.6110   -4.6180   -6.4180 ho        1 MOL      0.359357
    144 N13         4.9400   -4.1020   -0.1350 n         1 MOL     -0.693168
    145 C48         6.3840   -4.0830    0.0950 c3        1 MOL      0.127404
    146 C49         7.2080   -3.5090   -1.0200 c         1 MOL      0.522853
    147 O21         7.6350   -4.1960   -1.9470 o         1 MOL     -0.588254
    148 C50         6.7740   -5.4300    0.4790 c3        1 MOL      0.426079
    149 C51         6.3540   -5.9240    1.8130 c3        1 MOL     -0.403316
    150 C52         6.7740   -7.3870    2.1680 c         1 MOL      0.684903
    151 O22         6.6930   -8.2500    1.2350 o         1 MOL     -0.693038
    152 O23         7.2420   -7.7100    3.3120 o         1 MOL     -0.693038
    153 H65         4.6930   -4.7520   -0.8640 hn        1 MOL      0.333215
    154 H66         6.6710   -3.5000    0.9760 h1        1 MOL      0.023225
    155 H67         7.8590   -5.4990    0.4080 hc        1 MOL     -0.068350
    156 H68         6.5690   -6.1690   -0.2840 hc        1 MOL     -0.068350
    157 H69         5.2850   -6.0330    1.6550 hc        1 MOL      0.060390
    158 H70         6.5960   -5.1980    2.5920 hc        1 MOL      0.060390
    159 N14         7.4710   -2.2000   -1.1420 n         1 MOL     -0.545981
    160 C53         6.9850   -1.0880   -0.2770 c3        1 MOL     -0.012866
    161 C54         7.6930   -1.0700    1.0700 c         1 MOL      0.565407
    162 O24         8.9260   -1.2450    1.0320 o         1 MOL     -0.568984
    163 C55         7.2620    0.2490   -1.0800 c3        1 MOL     -0.153022
    164 C56         6.3810    0.5230   -2.3460 c3        1 MOL     -0.037143
    165 C57         6.4660    1.9470   -2.7850 c         1 MOL      0.703741
    166 O25         6.8710    2.2480   -3.9560 o         1 MOL     -0.701762
    167 O26         5.9760    2.8760   -2.0770 o         1 MOL     -0.701762
    168 H71         8.0270   -2.0180   -1.9700 hn        1 MOL      0.352995
    169 H72         5.9160   -1.2030   -0.0760 h1        1 MOL      0.063034
    170 H73         8.3120    0.3230   -1.3900 hc        1 MOL      0.034690
    171 H74         7.1240    1.0740   -0.3940 hc        1 MOL      0.034690
    172 H75         5.3530    0.2220   -2.1380 hc        1 MOL      0.002466
    173 H76         6.7100   -0.0850   -3.1890 hc        1 MOL      0.002466
    174 N15         6.9980   -0.7790    2.1760 n         1 MOL     -0.218662
    175 C58         7.5290   -0.6500    3.5180 c3        1 MOL     -0.252897
    176 H77         7.3650   -1.5800    4.0630 h1        1 MOL      0.100088
    177 H78         8.5970   -0.4410    3.4680 h1        1 MOL      0.100088
    178 H79         7.0220    0.1660    4.0330 h1        1 MOL      0.100088
    179 H80         6.0170   -0.6010    2.0320 hn        1 MOL      0.265700
    180 Ca1         6.1280    4.5600   -0.2830 Ca        1 MOL      1.723407
    181 O27         8.5980    3.1180   -0.3720 oh        1 MOL     -0.807562
    182 H81         8.8470    2.3880   -0.9400 ho        1 MOL      0.390729
    183 H82         9.4240    3.5380   -0.1440 ho        1 MOL      0.390729
    184 O28         7.7730    5.2110   -2.4850 oh        1 MOL     -0.807562
    185 H83         7.6110    4.6740   -3.2580 ho        1 MOL      0.390729
    186 H84         8.4830    5.7950   -2.7530 ho        1 MOL      0.390729
    187 O29         6.0170    7.1890   -1.0540 oh        1 MOL     -0.807562
    188 H85         5.1500    7.5870   -0.9920 ho        1 MOL      0.390729
    189 H86         6.3650    7.4980   -1.8880 ho        1 MOL      0.390729
    190 O30         6.3320    2.9120    1.8720 oh        1 MOL     -0.807562
    191 H87         5.5590    2.9710    2.4370 ho        1 MOL      0.390729
    192 H88         7.0470    2.6590    2.4600 ho        1 MOL      0.390729
    193 O31         7.9080    5.5590    1.6000 oh        1 MOL     -0.807562
    194 H89         8.2000    4.9170    2.2570 ho        1 MOL      0.390729
    195 H90         8.2170    6.4070    1.9370 ho        1 MOL      0.390729
@<TRIPOS>BOND
     1    1    2 1   
     2    1    4 1   
     3    1    5 1   
     4    1    6 1   
     5    2    3 2   
     6    2    7 1   
     7    7    8 1   
     8    7   15 1   
     9    8    9 1   
    10    8   11 1   
    11    8   16 1   
    12    9   10 2   
    13    9   19 1   
    14   11   12 1   
    15   11   17 1   
    16   11   18 1   
    17   12   13 1   
    18   12   14 1   
    19   19   20 1   
    20   19   27 1   
    21   20   21 1   
    22   20   23 1   
    23   20   28 1   
    24   21   22 2   
    25   21   38 1   
    26   23   24 1   
    27   23   25 1   
    28   23   29 1   
    29   24   26 1   
    30   24   30 1   
    31   24   31 1   
    32   25   32 1   
    33   25   33 1   
    34   25   34 1   
    35   26   35 1   
    36   26   36 1   
    37   26   37 1   
    38   38   39 1   
    39   38   46 1   
    40   39   40 1   
    41   39   42 1   
    42   39   47 1   
    43   40   41 2   
    44   40   50 1   
    45   42   43 1   
    46   42   48 1   
    47   42   49 1   
    48   43   44 1   
    49   43   45 1   
    50   50   51 1   
    51   50   54 1   
    52   51   52 1   
    53   51   55 1   
    54   51   56 1   
    55   52   53 2   
    56   52   57 1   
    57   57   58 1   
    58   57   65 1   
    59   58   59 1   
    60   58   61 1   
    61   58   66 1   
    62   59   60 2   
    63   59   69 1   
    64   61   62 1   
    65   61   67 1   
    66   61   68 1   
    67   62   63 1   
    68   62   64 1   
    69   69   70 1   
    70   69   73 1   
    71   70   71 1   
    72   70   74 1   
    73   70   75 1   
    74   71   72 2   
    75   71   76 1   
    76   76   77 1   
    77   76   85 1   
    78   77   78 1   
    79   77   80 1   
    80   77   86 1   
    81   78   79 2   
    82   78   93 1   
    83   80   81 1   
    84   80   87 1   
    85   80   88 1   
    86   81   82 1   
    87   81   89 1   
    88   81   90 1   
    89   82   83 1   
    90   82   84 2   
    91   83   91 1   
    92   83   92 1   
    93   93   94 1   
    94   93  100 1   
    95   94   95 1   
    96   94   97 1   
    97   94  101 1   
    98   95   96 2   
    99   95  109 1   
   100   97   98 1   
   101   97   99 1   
   102   97  102 1   
   103   98  103 1   
   104   98  104 1   
   105   98  105 1   
   106   99  106 1   
   107   99  107 1   
   108   99  108 1   
   109  109  110 1   
   110  109  117 1   
   111  110  111 1   
   112  110  113 1   
   113  110  118 1   
   114  111  112 2   
   115  111  123 1   
   116  113  114 1   
   117  113  119 1   
   118  113  120 1   
   119  114  115 1   
   120  114  116 2   
   121  115  121 1   
   122  115  122 1   
   123  123  124 1   
   124  123  135 1   
   125  124  125 1   
   126  124  127 1   
   127  124  136 1   
   128  125  126 2   
   129  125  144 1   
   130  127  128 1   
   131  127  137 1   
   132  127  138 1   
   133  128  129 ar  
   134  128  130 ar  
   135  129  131 ar  
   136  129  139 1   
   137  130  132 ar  
   138  130  140 1   
   139  131  133 ar  
   140  131  141 1   
   141  132  133 ar  
   142  132  142 1   
   143  133  134 1   
   144  134  143 1   
   145  144  145 1   
   146  144  153 1   
   147  145  146 1   
   148  145  148 1   
   149  145  154 1   
   150  146  147 2   
   151  146  159 1   
   152  148  149 1   
   153  148  155 1   
   154  148  156 1   
   155  149  150 1   
   156  149  157 1   
   157  149  158 1   
   158  150  151 1   
   159  150  152 1   
   160  159  160 1   
   161  159  168 1   
   162  160  161 1   
   163  160  163 1   
   164  160  169 1   
   165  161  162 2   
   166  161  174 1   
   167  163  164 1   
   168  163  170 1   
   169  163  171 1   
   170  164  165 1   
   171  164  172 1   
   172  164  173 1   
   173  165  166 1   
   174  165  167 1   
   175  174  175 1   
   176  174  179 1   
   177  175  176 1   
   178  175  177 1   
   179  175  178 1   
   180  181  182 1   
   181  181  183 1   
   182  184  185 1   
   183  184  186 1   
   184  187  188 1   
   185  187  189 1   
   186  190  191 1   
   187  190  192 1   
   188  193  194 1   
   189  193  195 1   
@<TRIPOS>SUBSTRUCTURE
     1 MOL         1 TEMP              0 ****  ****    0 ROOT
