@<TRIPOS>MOLECULE
MOL
  182   178     1     0     0
SMALL
resp


@<TRIPOS>ATOM
      1 C1          0.6600   -4.6700    6.0780 c3        1 MOL     -0.347526
      2 C2          0.9590   -4.4390    4.5880 c         1 MOL      0.710535
      3 O1          0.1390   -4.8170    3.7030 o         1 MOL     -0.570684
      4 H1          1.5430   -5.0830    6.5660 hc        1 MOL      0.096189
      5 H2          0.3970   -3.7210    6.5470 hc        1 MOL      0.096189
      6 H3         -0.1700   -5.3680    6.1800 hc        1 MOL      0.096189
      7 N1          2.1210   -3.7840    4.3050 n         1 MOL     -0.595240
      8 C3          2.4610   -3.5870    2.8960 c3        1 MOL      0.013898
      9 C4          2.7650   -4.8490    1.9890 c         1 MOL      0.620643
     10 O2          3.0510   -5.9560    2.4460 o         1 MOL     -0.532249
     11 C5          3.5160   -2.4420    2.7860 c3        1 MOL     -0.028494
     12 C6          3.4010   -1.4790    1.5670 c         1 MOL      0.480381
     13 O3          3.6890   -0.2670    1.5960 o         1 MOL     -0.657474
     14 O4          2.9800   -1.9750    0.5150 o         1 MOL     -0.657474
     15 H4          2.8130   -3.6340    5.0150 hn        1 MOL      0.338915
     16 H5          1.6140   -3.1340    2.3790 h1        1 MOL      0.054665
     17 H6          4.5150   -2.8850    2.7820 hc        1 MOL      0.037149
     18 H7          3.4210   -1.8160    3.6720 hc        1 MOL      0.037149
     19 N2          2.6670   -4.6360    0.6400 n         1 MOL     -0.512569
     20 C7          3.0100   -5.5980   -0.3840 c3        1 MOL      0.153041
     21 C8          4.2350   -5.2940   -1.2240 c         1 MOL      0.375986
     22 O5          4.8650   -6.2230   -1.7260 o         1 MOL     -0.521456
     23 C9          1.7900   -6.0150   -1.2660 c3        1 MOL     -0.127536
     24 C10         1.5270   -4.8920   -2.3230 c3        1 MOL      0.184167
     25 C11         0.3030   -5.2230   -3.2110 c3        1 MOL     -0.273464
     26 C12        -0.9420   -5.0540   -2.3360 c3        1 MOL      0.347906
     27 N3         -2.0550   -5.9090   -2.8690 n4        1 MOL     -0.413597
     28 H8          2.2590   -3.7790    0.2880 hn        1 MOL      0.266320
     29 H9          3.2590   -6.5720    0.0530 h1        1 MOL      0.080255
     30 H10         0.9240   -6.3250   -0.6760 hc        1 MOL      0.045018
     31 H11         1.9840   -6.9010   -1.8680 hc        1 MOL      0.045018
     32 H12         2.4050   -4.7390   -2.9550 hc        1 MOL      0.012937
     33 H13         1.3430   -3.8940   -1.9150 hc        1 MOL      0.012937
     34 H14         0.4340   -6.2360   -3.5850 hc        1 MOL      0.060536
     35 H15         0.2630   -4.4450   -3.9770 hc        1 MOL      0.060536
     36 H16        -1.2790   -4.0180   -2.2950 hx        1 MOL     -0.005721
     37 H17        -0.7880   -5.2960   -1.2850 hx        1 MOL     -0.005721
     38 H18        -2.3500   -5.5580   -3.7740 hn        1 MOL      0.273061
     39 H19        -1.7910   -6.8800   -2.8970 hn        1 MOL      0.273061
     40 H20        -2.7950   -5.8780   -2.1850 hn        1 MOL      0.273061
     41 N4          4.5840   -3.9610   -1.3600 n         1 MOL     -0.195064
     42 C13         5.8230   -3.4730   -1.9790 c3        1 MOL      0.047259
     43 C14         6.8240   -2.8950   -0.9300 c         1 MOL      0.360526
     44 O6          8.0070   -2.7770   -1.2110 o         1 MOL     -0.509190
     45 C15         5.4600   -2.4670   -3.0900 c3        1 MOL     -0.470598
     46 C16         4.3520   -1.5190   -2.7870 c         1 MOL      0.716679
     47 O7          3.3290   -1.5660   -3.4530 o         1 MOL     -0.720260
     48 O8          4.4260   -0.8340   -1.7450 o         1 MOL     -0.720260
     49 H21         3.9960   -3.3290   -0.8380 hn        1 MOL      0.186360
     50 H22         6.3290   -4.2390   -2.5670 h1        1 MOL      0.113332
     51 H23         5.3150   -2.9950   -4.0370 hc        1 MOL      0.166298
     52 H24         6.3650   -1.8820   -3.1970 hc        1 MOL      0.166298
     53 N5          6.3770   -2.4480    0.2500 n         1 MOL     -0.074731
     54 C17         7.1400   -1.6220    1.2210 c3        1 MOL     -0.155426
     55 C18         7.3430   -0.1730    0.7810 c         1 MOL      0.628483
     56 O9          8.0240    0.5760    1.4580 o         1 MOL     -0.569323
     57 H25         5.4180   -2.6350    0.5220 hn        1 MOL      0.073627
     58 H26         8.1740   -1.9410    1.3640 h1        1 MOL      0.091112
     59 H27         6.5710   -1.6030    2.1520 h1        1 MOL      0.091112
     60 N6          6.7390    0.2840   -0.3620 n         1 MOL     -0.321126
     61 C19         6.8930    1.6450   -0.9230 c3        1 MOL      0.049703
     62 C20         5.7350    2.4790   -0.3780 c         1 MOL      0.565505
     63 O10         4.5730    2.0590   -0.2870 o         1 MOL     -0.583806
     64 C21         6.8070    1.5650   -2.4140 c3        1 MOL     -0.330931
     65 C22         7.2700    2.8400   -3.1130 c         1 MOL      0.772587
     66 N7          6.6460    3.2790   -4.1870 n         1 MOL     -0.856736
     67 O11         8.2560    3.4460   -2.7430 o         1 MOL     -0.557497
     68 H28         6.0840   -0.3600   -0.7780 hn        1 MOL      0.271107
     69 H29         7.8050    2.1250   -0.5750 h1        1 MOL      0.055515
     70 H30         5.7710    1.3350   -2.6600 hc        1 MOL      0.071824
     71 H31         7.4720    0.7610   -2.7280 hc        1 MOL      0.071824
     72 H32         5.9050    2.7080   -4.5740 hn        1 MOL      0.375012
     73 H33         6.9970    4.0190   -4.7740 hn        1 MOL      0.375012
     74 N8          6.0430    3.7680   -0.2800 n         1 MOL     -0.333696
     75 C23         5.0140    4.8130   -0.1770 c3        1 MOL     -0.177603
     76 C24         3.9390    4.6780    0.8820 c         1 MOL      0.544504
     77 O12         4.1380    4.4740    2.1080 o         1 MOL     -0.492169
     78 H34         7.0290    3.9810   -0.3300 hn        1 MOL      0.292806
     79 H35         4.6990    4.9950   -1.1990 h1        1 MOL      0.103604
     80 H36         5.6130    5.6980    0.0360 h1        1 MOL      0.103604
     81 N9          2.6840    4.7860    0.4330 n         1 MOL     -0.593463
     82 C25         1.5150    4.6250    1.3090 c3        1 MOL      0.544255
     83 C26         1.3300    3.0820    1.6960 c         1 MOL      0.273130
     84 O13         2.1250    2.2340    1.2620 o         1 MOL     -0.350282
     85 C27         0.2750    5.2220    0.6280 c3        1 MOL     -0.233205
     86 C28         0.1480    6.7380    0.2760 ca        1 MOL      0.242642
     87 C29        -0.4900    7.1490   -0.9730 ca        1 MOL     -0.364240
     88 C30         0.8700    7.6750    1.0450 ca        1 MOL     -0.364240
     89 C31        -0.3310    8.5180   -1.3620 ca        1 MOL     -0.107820
     90 C32         0.9410    9.0750    0.7180 ca        1 MOL     -0.107820
     91 C33         0.3620    9.4720   -0.5090 ca        1 MOL      0.186698
     92 O14         0.4920   10.7870   -0.7990 oh        1 MOL     -0.409290
     93 H37         2.4680    4.6220   -0.5370 hn        1 MOL      0.281006
     94 H38         1.7080    5.2110    2.2070 h1        1 MOL     -0.006421
     95 H39        -0.5420    5.0630    1.3360 hc        1 MOL      0.019787
     96 H40         0.0200    4.6230   -0.2500 hc        1 MOL      0.019787
     97 H41        -1.1030    6.4640   -1.5320 ha        1 MOL      0.187824
     98 H42         1.3670    7.4140    1.9670 ha        1 MOL      0.187824
     99 H43        -0.8150    8.8550   -2.2730 ha        1 MOL      0.137868
    100 H44         1.5090    9.7870    1.3010 ha        1 MOL      0.137868
    101 H45        -0.0050   10.9700   -1.6010 ho        1 MOL      0.340451
    102 N10         0.3700    2.7840    2.5390 n         1 MOL     -0.547128
    103 C34        -0.0650    1.4550    3.0470 c3        1 MOL      0.095484
    104 C35        -0.4180    0.4380    1.9390 c         1 MOL      0.401883
    105 O15         0.4760   -0.0590    1.2900 o         1 MOL     -0.450499
    106 C36         0.8830    0.9220    4.1610 c3        1 MOL      0.294240
    107 C37         0.4300   -0.4840    4.5920 c3        1 MOL     -0.109285
    108 C38         1.0180    1.9420    5.2630 c3        1 MOL     -0.182746
    109 C39        -0.9520   -0.6990    5.2310 c3        1 MOL     -0.365153
    110 H46        -0.1980    3.5340    2.9020 hn        1 MOL      0.303161
    111 H47        -1.0360    1.7180    3.4650 h1        1 MOL      0.040568
    112 H48         1.8370    0.7380    3.6700 hc        1 MOL      0.000314
    113 H49         1.2490   -0.7900    5.2310 hc        1 MOL      0.056259
    114 H50         0.6040   -1.2260    3.8050 hc        1 MOL      0.056259
    115 H51         1.1900    2.9740    4.9590 hc        1 MOL      0.045002
    116 H52         0.1000    1.8720    5.8440 hc        1 MOL      0.045002
    117 H53         1.8960    1.6780    5.8580 hc        1 MOL      0.045002
    118 H54        -0.9430   -0.2900    6.2400 hc        1 MOL      0.095203
    119 H55        -1.7750   -0.3710    4.5900 hc        1 MOL      0.095203
    120 H56        -0.9860   -1.7830    5.3330 hc        1 MOL      0.095203
    121 N11        -1.7130    0.0890    1.7200 n         1 MOL     -0.344073
    122 C40        -2.1880   -0.7920    0.6770 c3        1 MOL     -0.223748
    123 C41        -3.6250   -0.5840    0.3580 c         1 MOL      0.673914
    124 O16        -4.4630   -0.8460    1.2330 o         1 MOL     -0.532689
    125 C42        -1.9360   -2.2500    1.1160 c3        1 MOL      0.160609
    126 O17        -1.9440   -3.2500    0.0270 oh        1 MOL     -0.596705
    127 H57        -2.4310    0.5520    2.2540 hn        1 MOL      0.274013
    128 H58        -1.5300   -0.5720   -0.1570 h1        1 MOL      0.142478
    129 H59        -2.5950   -2.5130    1.9400 h1        1 MOL      0.089602
    130 H60        -0.9560   -2.2980    1.5880 h1        1 MOL      0.089602
    131 H61        -2.8580   -3.4650   -0.1740 ho        1 MOL      0.354079
    132 N12        -3.8590   -0.1340   -0.8610 n         1 MOL     -0.720635
    133 C43        -5.2480   -0.0740   -1.4330 c3        1 MOL      0.594860
    134 C44        -5.4310   -1.1320   -2.5400 c         1 MOL      0.408468
    135 O18        -4.4350   -1.3780   -3.2800 o         1 MOL     -0.566659
    136 C45        -5.5200    1.3860   -1.9000 c3        1 MOL     -0.351640
    137 H62        -3.0100    0.0790   -1.3560 hn        1 MOL      0.319386
    138 H63        -5.9290   -0.2630   -0.6090 h1        1 MOL     -0.030842
    139 H64        -6.2990    1.4100   -2.6710 hc        1 MOL      0.084877
    140 H65        -5.8000    2.0770   -1.1080 hc        1 MOL      0.084877
    141 H66        -4.6450    1.6960   -2.4760 hc        1 MOL      0.084877
    142 N13        -6.6140   -1.6790   -2.7940 n         1 MOL     -0.536851
    143 C46        -7.8970   -1.4640   -2.0850 c3        1 MOL      0.109790
    144 C47        -8.7000   -0.2190   -2.6430 c         1 MOL      0.810643
    145 O19        -8.5020    0.1450   -3.7620 o         1 MOL     -0.582638
    146 C48        -8.6990   -2.7800   -2.1720 c3        1 MOL     -0.339384
    147 H67        -6.5950   -2.3030   -3.5800 hn        1 MOL      0.347952
    148 H68        -7.6860   -1.3490   -1.0180 h1        1 MOL      0.047481
    149 H69        -8.8410   -2.9810   -3.2290 hc        1 MOL      0.111652
    150 H70        -8.2160   -3.6750   -1.7910 hc        1 MOL      0.111652
    151 H71        -9.6720   -2.5810   -1.7090 hc        1 MOL      0.111652
    152 N14        -9.5030    0.5030   -1.8650 n         1 MOL     -0.849717
    153 C49       -10.0210    0.0620   -0.5210 c3        1 MOL      0.034501
    154 C50        -9.5420    1.0210    0.6380 c         1 MOL      0.489917
    155 O20        -9.1140    0.5410    1.6730 o         1 MOL     -0.524654
    156 C51       -11.5610   -0.0510   -0.5640 c3        1 MOL      0.361186
    157 C52       -12.1990   -0.2150    0.7980 c3        1 MOL     -0.444609
    158 C53       -13.6180   -0.5420    0.6920 c         1 MOL      0.749194
    159 O21       -14.5540    0.1520    1.2090 o         1 MOL     -0.659964
    160 O22       -14.0020   -1.5030    0.0280 o         1 MOL     -0.659964
    161 H72        -9.7780    1.4020   -2.2330 hn        1 MOL      0.378535
    162 H73        -9.6960   -0.9280   -0.1940 h1        1 MOL      0.074820
    163 H74       -11.8480   -0.8180   -1.2860 hc        1 MOL     -0.063618
    164 H75       -11.8250    0.9530   -0.8690 hc        1 MOL     -0.063618
    165 H76       -12.0380    0.7360    1.3050 hc        1 MOL      0.092945
    166 H77       -11.6420   -1.0040    1.2980 hc        1 MOL      0.092945
    167 N15        -9.6130    2.3170    0.3910 n         1 MOL     -0.263502
    168 C54        -9.1530    3.3280    1.2730 c3        1 MOL     -0.275282
    169 H78        -9.8990    4.1180    1.3390 h1        1 MOL      0.119620
    170 H79        -8.9880    2.9000    2.2620 h1        1 MOL      0.119620
    171 H80        -8.2180    3.7420    0.8960 h1        1 MOL      0.119620
    172 H81       -10.1310    2.6090   -0.4240 hn        1 MOL      0.269210
    173 Ca1         2.4780    0.5070   -0.6040 Ca        1 MOL      1.706521
    174 O23         0.5010    2.0720   -1.2940 oh        1 MOL     -0.856332
    175 H82         0.6320    2.8590   -1.8260 ho        1 MOL      0.420091
    176 H83        -0.4500    1.9470   -1.2890 ho        1 MOL      0.420091
    177 O24         1.0810   -1.2010   -2.0150 oh        1 MOL     -0.856332
    178 H84         0.3050   -1.4410   -2.5280 ho        1 MOL      0.420091
    179 H85         1.8230   -1.4600   -2.5710 ho        1 MOL      0.420091
    180 O25         2.6310    1.2280   -3.1120 oh        1 MOL     -0.856332
    181 H86         2.9270    2.0820   -3.4150 ho        1 MOL      0.420091
    182 H87         3.1720    0.6010   -3.5870 ho        1 MOL      0.420091
@<TRIPOS>BOND
     1    1    2 1   
     2    1    4 1   
     3    1    5 1   
     4    1    6 1   
     5    2    3 2   
     6    2    7 1   
     7    7    8 1   
     8    7   15 1   
     9    8    9 1   
    10    8   11 1   
    11    8   16 1   
    12    9   10 2   
    13    9   19 1   
    14   11   12 1   
    15   11   17 1   
    16   11   18 1   
    17   12   13 1   
    18   12   14 1   
    19   19   20 1   
    20   19   28 1   
    21   20   21 1   
    22   20   23 1   
    23   20   29 1   
    24   21   22 2   
    25   21   41 1   
    26   23   24 1   
    27   23   30 1   
    28   23   31 1   
    29   24   25 1   
    30   24   32 1   
    31   24   33 1   
    32   25   26 1   
    33   25   34 1   
    34   25   35 1   
    35   26   27 1   
    36   26   36 1   
    37   26   37 1   
    38   27   38 1   
    39   27   39 1   
    40   27   40 1   
    41   41   42 1   
    42   41   49 1   
    43   42   43 1   
    44   42   45 1   
    45   42   50 1   
    46   43   44 2   
    47   43   53 1   
    48   45   46 1   
    49   45   51 1   
    50   45   52 1   
    51   46   47 1   
    52   46   48 1   
    53   53   54 1   
    54   53   57 1   
    55   54   55 1   
    56   54   58 1   
    57   54   59 1   
    58   55   56 2   
    59   55   60 1   
    60   60   61 1   
    61   60   68 1   
    62   61   62 1   
    63   61   64 1   
    64   61   69 1   
    65   62   63 2   
    66   62   74 1   
    67   64   65 1   
    68   64   70 1   
    69   64   71 1   
    70   65   66 1   
    71   65   67 2   
    72   66   72 1   
    73   66   73 1   
    74   74   75 1   
    75   74   78 1   
    76   75   76 1   
    77   75   79 1   
    78   75   80 1   
    79   76   77 2   
    80   76   81 1   
    81   81   82 1   
    82   81   93 1   
    83   82   83 1   
    84   82   85 1   
    85   82   94 1   
    86   83   84 2   
    87   83  102 1   
    88   85   86 1   
    89   85   95 1   
    90   85   96 1   
    91   86   87 ar  
    92   86   88 ar  
    93   87   89 ar  
    94   87   97 1   
    95   88   90 ar  
    96   88   98 1   
    97   89   91 ar  
    98   89   99 1   
    99   90   91 ar  
   100   90  100 1   
   101   91   92 1   
   102   92  101 1   
   103  102  103 1   
   104  102  110 1   
   105  103  104 1   
   106  103  106 1   
   107  103  111 1   
   108  104  105 2   
   109  104  121 1   
   110  106  107 1   
   111  106  108 1   
   112  106  112 1   
   113  107  109 1   
   114  107  113 1   
   115  107  114 1   
   116  108  115 1   
   117  108  116 1   
   118  108  117 1   
   119  109  118 1   
   120  109  119 1   
   121  109  120 1   
   122  121  122 1   
   123  121  127 1   
   124  122  123 1   
   125  122  125 1   
   126  122  128 1   
   127  123  124 2   
   128  123  132 1   
   129  125  126 1   
   130  125  129 1   
   131  125  130 1   
   132  126  131 1   
   133  132  133 1   
   134  132  137 1   
   135  133  134 1   
   136  133  136 1   
   137  133  138 1   
   138  134  135 2   
   139  134  142 1   
   140  136  139 1   
   141  136  140 1   
   142  136  141 1   
   143  142  143 1   
   144  142  147 1   
   145  143  144 1   
   146  143  146 1   
   147  143  148 1   
   148  144  145 2   
   149  144  152 1   
   150  146  149 1   
   151  146  150 1   
   152  146  151 1   
   153  152  153 1   
   154  152  161 1   
   155  153  154 1   
   156  153  156 1   
   157  153  162 1   
   158  154  155 2   
   159  154  167 1   
   160  156  157 1   
   161  156  163 1   
   162  156  164 1   
   163  157  158 1   
   164  157  165 1   
   165  157  166 1   
   166  158  159 1   
   167  158  160 1   
   168  167  168 1   
   169  167  172 1   
   170  168  169 1   
   171  168  170 1   
   172  168  171 1   
   173  174  175 1   
   174  174  176 1   
   175  177  178 1   
   176  177  179 1   
   177  180  181 1   
   178  180  182 1   
@<TRIPOS>SUBSTRUCTURE
     1 MOL         1 TEMP              0 ****  ****    0 ROOT
