@<TRIPOS>MOLECULE
MOL
  192   187     1     0     0
SMALL
resp


@<TRIPOS>ATOM
      1 C1         -4.3340   -2.4680   -6.3210 c3        1 MOL     -0.255653
      2 C2         -4.1550   -1.6400   -4.9660 c         1 MOL      0.637278
      3 O1         -3.5640   -0.5800   -4.9160 o         1 MOL     -0.500983
      4 H1         -4.8530   -1.8520   -7.0560 hc        1 MOL      0.067283
      5 H2         -3.3550   -2.7480   -6.7080 hc        1 MOL      0.067283
      6 H3         -4.9190   -3.3660   -6.1230 hc        1 MOL      0.067283
      7 N1         -4.6710   -2.1610   -3.8140 n         1 MOL     -0.532437
      8 C3         -4.6840   -1.4930   -2.4500 c3        1 MOL      0.118061
      9 C4         -3.3580   -1.4040   -1.6830 c         1 MOL     -0.003446
     10 O2         -3.3000   -0.9760   -0.5480 o         1 MOL     -0.372743
     11 C5         -5.8100   -2.0890   -1.6660 c3        1 MOL     -0.213746
     12 C6         -5.8290   -3.6110   -1.5140 c         1 MOL      0.748581
     13 O3         -6.4010   -4.3020   -2.4070 o         1 MOL     -0.718439
     14 O4         -5.4360   -4.1260   -0.4560 o         1 MOL     -0.718439
     15 H4         -5.2260   -2.9980   -3.9050 hn        1 MOL      0.284544
     16 H5         -4.9440   -0.4480   -2.6560 h1        1 MOL      0.125009
     17 H6         -6.7120   -1.7630   -2.1910 hc        1 MOL      0.084145
     18 H7         -5.8870   -1.7060   -0.6500 hc        1 MOL      0.084145
     19 N2         -2.2970   -1.7820   -2.3710 n         1 MOL      0.019789
     20 C7         -0.9520   -1.9310   -1.8350 c3        1 MOL      0.068455
     21 C8         -0.0010   -1.0990   -2.7320 c         1 MOL      0.600647
     22 O5         -0.1700   -1.1700   -3.9500 o         1 MOL     -0.557863
     23 C9         -0.7310   -3.4330   -1.6450 c3        1 MOL     -0.277114
     24 C10        -1.7640   -4.1840   -0.6960 c3        1 MOL      0.286222
     25 C11        -1.5950   -5.6860   -0.7840 c3        1 MOL     -0.234043
     26 C12        -2.3930   -6.3930    0.2900 c3        1 MOL     -0.048925
     27 N3         -3.9410   -6.3370    0.1360 n4        1 MOL     -0.294730
     28 H8         -2.4510   -1.9100   -3.3610 hn        1 MOL      0.168902
     29 H9         -0.9270   -1.4440   -0.8600 h1        1 MOL      0.018881
     30 H10         0.2580   -3.5150   -1.1780 hc        1 MOL      0.069575
     31 H11        -0.5510   -3.9090   -2.6160 hc        1 MOL      0.069575
     32 H12        -2.7900   -4.0300   -1.0450 hc        1 MOL     -0.019362
     33 H13        -1.6080   -3.8550    0.3260 hc        1 MOL     -0.019362
     34 H14        -0.5570   -5.8920   -0.5370 hc        1 MOL      0.086632
     35 H15        -1.8740   -6.0530   -1.7750 hc        1 MOL      0.086632
     36 H16        -2.0320   -5.8560    1.1660 hx        1 MOL      0.097497
     37 H17        -2.3080   -7.4790    0.3840 hx        1 MOL      0.097497
     38 H18        -4.4570   -6.9030    0.7920 hn        1 MOL      0.294977
     39 H19        -4.2210   -5.3760   -0.0350 hn        1 MOL      0.294977
     40 H20        -4.2070   -6.7400   -0.7470 hn        1 MOL      0.294977
     41 N4          1.0290   -0.3940   -2.3260 n         1 MOL     -0.454174
     42 C13         1.5090   -0.1350   -0.8930 c3        1 MOL      0.221123
     43 C14         1.6020   -1.4270   -0.0540 c         1 MOL      0.136790
     44 O6          0.7710   -1.7390    0.7720 o         1 MOL     -0.352223
     45 C15         0.7090    0.9660   -0.1920 c3        1 MOL     -0.046163
     46 C16         0.6300    2.2510   -0.9390 c         1 MOL      0.709743
     47 O7          1.4050    2.4800   -1.9120 o         1 MOL     -0.756274
     48 O8         -0.2960    3.0430   -0.7310 o         1 MOL     -0.756274
     49 H21         1.5000    0.0970   -3.0610 hn        1 MOL      0.314259
     50 H22         2.5300    0.2600   -0.9600 h1        1 MOL     -0.009585
     51 H23         1.1360    1.2340    0.7710 hc        1 MOL      0.049436
     52 H24        -0.3210    0.6720    0.0130 hc        1 MOL      0.049436
     53 N5          2.5610   -2.3290   -0.3270 n         1 MOL     -0.376795
     54 C17         3.7670   -2.0160   -1.1540 c3        1 MOL      0.184143
     55 C18         4.5500   -3.3380   -1.5220 c         1 MOL      0.359950
     56 O9          4.2640   -4.4640   -1.0110 o         1 MOL     -0.515190
     57 H25         2.5550   -3.1390    0.2780 hn        1 MOL      0.289937
     58 H26         4.3580   -1.2670   -0.6350 h1        1 MOL      0.014767
     59 H27         3.4970   -1.6470   -2.1410 h1        1 MOL      0.014767
     60 N6          5.6310   -3.2020   -2.3140 n         1 MOL     -0.314469
     61 C19         6.2070   -1.8800   -2.8310 c3        1 MOL      0.014985
     62 C20         6.8870   -1.1540   -1.7890 c         1 MOL      0.494761
     63 O10         7.0000   -1.5560   -0.6350 o         1 MOL     -0.492141
     64 C21         7.1020   -2.1760   -4.0350 c3        1 MOL     -0.177388
     65 C22         8.1380   -3.2460   -3.7900 c         1 MOL      0.691879
     66 O11         9.0730   -2.9940   -2.9780 o         1 MOL     -0.668123
     67 O12         7.9160   -4.3310   -4.3500 o         1 MOL     -0.668123
     68 H28         6.0460   -4.0700   -2.5840 hn        1 MOL      0.317006
     69 H29         5.4200   -1.2070   -3.1890 h1        1 MOL      0.016208
     70 H30         7.5920   -1.2980   -4.4660 hc        1 MOL      0.027054
     71 H31         6.4220   -2.6770   -4.7230 hc        1 MOL      0.027054
     72 N7          7.3260    0.0360   -2.1570 n         1 MOL     -0.320663
     73 C23         8.3140    0.8120   -1.3500 c3        1 MOL     -0.257402
     74 C24         7.8210    1.5610   -0.0770 c         1 MOL      0.566090
     75 O13         8.5400    2.2050    0.6960 o         1 MOL     -0.554277
     76 H32         7.1800    0.2750   -3.1230 hn        1 MOL      0.267021
     77 H33         8.7640    1.5970   -1.9600 h1        1 MOL      0.155155
     78 H34         9.1060    0.1880   -0.9570 h1        1 MOL      0.155155
     79 N8          6.4960    1.5410    0.1450 n         1 MOL     -0.290343
     80 C25         5.9030    1.9540    1.4190 c3        1 MOL     -0.360379
     81 C26         4.7490    0.9470    1.7330 c         1 MOL      0.630017
     82 O14         3.7490    1.0020    1.0410 o         1 MOL     -0.344668
     83 C27         5.4800    3.4250    1.3020 c3        1 MOL      0.360689
     84 C28         4.9490    3.9600    2.6460 c3        1 MOL     -0.163542
     85 O15         4.5740    3.7180    0.2390 oh        1 MOL     -0.643056
     86 H35         5.8550    1.1880   -0.5540 hn        1 MOL      0.170494
     87 H36         6.6790    1.8200    2.1760 h1        1 MOL      0.192698
     88 H37         6.3390    4.0610    1.1080 h1        1 MOL      0.053367
     89 H38         4.4780    2.8990   -0.2410 ho        1 MOL      0.360713
     90 H39         5.7270    4.6100    3.0600 hc        1 MOL      0.043217
     91 H40         3.9870    4.4470    2.4680 hc        1 MOL      0.043217
     92 H41         4.9110    3.1720    3.3960 hc        1 MOL      0.043217
     93 N9          4.8200    0.1450    2.7650 n         1 MOL     -0.349359
     94 C29         3.8210   -0.9020    3.0910 c3        1 MOL     -0.389316
     95 C30         2.5630   -0.3450    3.8470 c         1 MOL      0.448362
     96 O16         1.9740   -1.0220    4.7170 o         1 MOL     -0.512171
     97 C31         4.5030   -2.0780    3.9100 c3        1 MOL      0.212060
     98 C32         5.1810   -1.4130    5.2180 c3        1 MOL      0.110732
     99 C33         5.4360   -2.9420    2.9960 c3        1 MOL     -0.383192
    100 C34         5.6950   -2.4640    6.1940 c3        1 MOL     -0.246225
    101 H42         5.6190    0.2170    3.3670 hn        1 MOL      0.248109
    102 H43         3.4290   -1.3390    2.1690 h1        1 MOL      0.258433
    103 H44         3.6760   -2.6710    4.3110 hc        1 MOL      0.023850
    104 H45         4.5670   -0.7220    5.7880 hc        1 MOL      0.014709
    105 H46         6.1150   -0.9160    4.9730 hc        1 MOL      0.014709
    106 H47         5.6640   -3.8680    3.5310 hc        1 MOL      0.111138
    107 H48         4.9820   -3.2140    2.0490 hc        1 MOL      0.111138
    108 H49         6.3680   -2.4130    2.8010 hc        1 MOL      0.111138
    109 H50         6.5470   -3.0170    5.7850 hc        1 MOL      0.054696
    110 H51         5.9130   -1.9410    7.1320 hc        1 MOL      0.054696
    111 H52         4.9520   -3.2270    6.4040 hc        1 MOL      0.054696
    112 N10         2.1510    0.8590    3.4270 n         1 MOL      0.055428
    113 C35         1.0110    1.4850    4.0080 c3        1 MOL      0.052663
    114 C36        -0.3340    1.1170    3.2090 c         1 MOL      0.271724
    115 O17        -1.1620    2.0090    2.7820 o         1 MOL     -0.432411
    116 C37         1.2080    3.0670    4.0600 c3        1 MOL      0.233586
    117 C38         1.4280    3.6060    2.6680 c3        1 MOL     -0.053323
    118 O18         2.3840    3.3590    4.7660 oh        1 MOL     -0.644124
    119 H53         2.5080    1.3680    2.6390 hn        1 MOL     -0.166594
    120 H54         0.8660    1.0350    4.9880 h1        1 MOL      0.063212
    121 H55         0.3150    3.5400    4.4600 h1        1 MOL      0.033425
    122 H56         2.6060    4.2870    4.7350 ho        1 MOL      0.396612
    123 H57         2.1860    3.0170    2.1500 hc        1 MOL      0.004715
    124 H58         0.4860    3.6520    2.1200 hc        1 MOL      0.004715
    125 H59         1.8060    4.6220    2.7770 hc        1 MOL      0.004715
    126 N11        -0.5390   -0.1670    3.2270 n         1 MOL     -0.077324
    127 C39        -1.6890   -0.8070    2.6000 c3        1 MOL     -0.518091
    128 C40        -2.9840   -0.0570    2.8820 c         1 MOL      0.562461
    129 O19        -3.1970    0.4470    4.0270 o         1 MOL     -0.540596
    130 C41        -1.8480   -2.3090    2.8980 c3        1 MOL      0.607422
    131 C42        -2.1990   -2.5800    4.3370 c3        1 MOL     -0.248032
    132 O20        -0.6710   -3.0180    2.6080 oh        1 MOL     -0.622881
    133 H60         0.1320   -0.7560    3.6910 hn        1 MOL      0.204173
    134 H61        -1.4660   -0.7660    1.5310 h1        1 MOL      0.211507
    135 H62        -2.6440   -2.7490    2.2940 h1        1 MOL     -0.066592
    136 H63         0.0200   -2.4600    2.2400 ho        1 MOL      0.337257
    137 H64        -2.2610   -3.6400    4.5720 hc        1 MOL      0.050983
    138 H65        -1.4800   -2.1090    5.0220 hc        1 MOL      0.050983
    139 H66        -3.1340   -2.1120    4.6570 hc        1 MOL      0.050983
    140 N12        -3.9960   -0.0050    2.0280 n         1 MOL     -0.371297
    141 C43        -5.3510    0.6030    2.2770 c3        1 MOL      0.003280
    142 C44        -5.8830    1.5380    1.0510 c         1 MOL      0.543375
    143 O21        -6.7950    2.3480    1.1540 o         1 MOL     -0.604060
    144 C45        -6.3380   -0.4870    2.5700 c3        1 MOL     -0.056171
    145 C46        -7.7700   -0.0510    2.6090 c3        1 MOL      0.092434
    146 C47        -8.7490   -1.0320    3.3200 c3        1 MOL     -0.135770
    147 C48        -8.5490   -1.2460    4.8630 c3        1 MOL     -0.099183
    148 N13        -9.1820   -0.1560    5.6240 n4        1 MOL     -0.333033
    149 H67        -3.9070   -0.4250    1.1200 hn        1 MOL      0.225217
    150 H68        -5.3380    1.3190    3.0890 h1        1 MOL      0.093490
    151 H69        -6.2200   -0.9930    3.5280 hc        1 MOL      0.019635
    152 H70        -6.2490   -1.2880    1.8320 hc        1 MOL      0.019635
    153 H71        -8.2190    0.1960    1.6420 hc        1 MOL      0.015285
    154 H72        -7.9000    0.8740    3.1760 hc        1 MOL      0.015285
    155 H73        -8.6270   -2.0540    2.9590 hc        1 MOL      0.073524
    156 H74        -9.7730   -0.8450    2.9960 hc        1 MOL      0.073524
    157 H75        -7.4630   -1.1950    4.9800 hx        1 MOL      0.129752
    158 H76        -8.8910   -2.2500    5.1050 hx        1 MOL      0.129752
    159 H77        -9.2300   -0.3090    6.6150 hn        1 MOL      0.309779
    160 H78        -8.7210    0.7430    5.5320 hn        1 MOL      0.309779
    161 H79       -10.1810   -0.2230    5.4820 hn        1 MOL      0.309779
    162 N14        -5.0980    1.5380    0.0070 n         1 MOL     -0.184899
    163 C49        -5.0510    2.5760   -1.0600 c3        1 MOL     -0.153882
    164 C50        -6.1410    2.4420   -2.1160 c         1 MOL      0.418187
    165 O22        -6.1680    1.4370   -2.8360 o         1 MOL     -0.463248
    166 C51        -3.6400    2.5590   -1.6990 c3        1 MOL     -0.121001
    167 C52        -3.6290    3.3710   -3.0420 c3        1 MOL     -0.005312
    168 C53        -2.2190    3.9670   -3.3160 c         1 MOL      0.765297
    169 O23        -1.3030    3.2850   -3.8100 o         1 MOL     -0.811671
    170 O24        -2.0090    5.1530   -3.0470 o         1 MOL     -0.811671
    171 H80        -4.4310    0.7960   -0.1900 hn        1 MOL      0.098113
    172 H81        -5.1340    3.5700   -0.6200 h1        1 MOL      0.106220
    173 H82        -3.1970    1.5670   -1.8370 hc        1 MOL      0.115298
    174 H83        -2.9670    3.1460   -1.0830 hc        1 MOL      0.115298
    175 H84        -4.2240    4.2610   -2.8260 hc        1 MOL      0.014650
    176 H85        -3.9320    2.7450   -3.8830 hc        1 MOL      0.014650
    177 N15        -7.0450    3.4510   -2.1710 n         1 MOL     -0.270584
    178 C54        -8.1850    3.4680   -3.1230 c3        1 MOL     -0.231074
    179 H86        -8.3380    4.4830   -3.4890 h1        1 MOL      0.113048
    180 H87        -7.9680    2.8090   -3.9630 h1        1 MOL      0.113048
    181 H88        -9.0880    3.1260   -2.6160 h1        1 MOL      0.113048
    182 H89        -7.0180    4.1250   -1.4160 hn        1 MOL      0.262290
    183 Ca1         0.6030    4.8600   -2.6210 Ca        1 MOL      1.744676
    184 O25        -0.5000    6.5720   -0.7880 oh        1 MOL     -0.861655
    185 H90        -1.4350    6.6080   -0.9770 ho        1 MOL      0.430169
    186 H91        -0.4510    6.4910    0.1600 ho        1 MOL      0.430169
    187 O26         3.1730    4.6970   -3.3000 oh        1 MOL     -0.861655
    188 H92         3.7780    5.0630   -2.6550 ho        1 MOL      0.430169
    189 H93         3.7250    4.3670   -4.0040 ho        1 MOL      0.430169
    190 O27         1.9290    5.3010   -0.3830 oh        1 MOL     -0.861655
    191 H94         2.0730    5.9540    0.3010 ho        1 MOL      0.430169
    192 H95         2.4220    4.5370   -0.0820 ho        1 MOL      0.430169
@<TRIPOS>BOND
     1    1    2 1   
     2    1    4 1   
     3    1    5 1   
     4    1    6 1   
     5    2    3 2   
     6    2    7 1   
     7    7    8 1   
     8    7   15 1   
     9    8    9 1   
    10    8   11 1   
    11    8   16 1   
    12    9   10 2   
    13    9   19 1   
    14   11   12 1   
    15   11   17 1   
    16   11   18 1   
    17   12   13 1   
    18   12   14 1   
    19   19   20 1   
    20   19   28 1   
    21   20   21 1   
    22   20   23 1   
    23   20   29 1   
    24   21   22 2   
    25   21   41 1   
    26   23   24 1   
    27   23   30 1   
    28   23   31 1   
    29   24   25 1   
    30   24   32 1   
    31   24   33 1   
    32   25   26 1   
    33   25   34 1   
    34   25   35 1   
    35   26   27 1   
    36   26   36 1   
    37   26   37 1   
    38   27   38 1   
    39   27   39 1   
    40   27   40 1   
    41   41   42 1   
    42   41   49 1   
    43   42   43 1   
    44   42   45 1   
    45   42   50 1   
    46   43   44 2   
    47   43   53 1   
    48   45   46 1   
    49   45   51 1   
    50   45   52 1   
    51   46   47 1   
    52   46   48 1   
    53   53   54 1   
    54   53   57 1   
    55   54   55 1   
    56   54   58 1   
    57   54   59 1   
    58   55   56 2   
    59   55   60 1   
    60   60   61 1   
    61   60   68 1   
    62   61   62 1   
    63   61   64 1   
    64   61   69 1   
    65   62   63 2   
    66   62   72 1   
    67   64   65 1   
    68   64   70 1   
    69   64   71 1   
    70   65   66 1   
    71   65   67 1   
    72   72   73 1   
    73   72   76 1   
    74   73   74 1   
    75   73   77 1   
    76   73   78 1   
    77   74   75 2   
    78   74   79 1   
    79   79   80 1   
    80   79   86 1   
    81   80   81 1   
    82   80   83 1   
    83   80   87 1   
    84   81   82 2   
    85   81   93 1   
    86   83   84 1   
    87   83   85 1   
    88   83   88 1   
    89   84   90 1   
    90   84   91 1   
    91   84   92 1   
    92   85   89 1   
    93   93   94 1   
    94   93  101 1   
    95   94   95 1   
    96   94   97 1   
    97   94  102 1   
    98   95   96 2   
    99   95  112 1   
   100   97   98 1   
   101   97   99 1   
   102   97  103 1   
   103   98  100 1   
   104   98  104 1   
   105   98  105 1   
   106   99  106 1   
   107   99  107 1   
   108   99  108 1   
   109  100  109 1   
   110  100  110 1   
   111  100  111 1   
   112  112  113 1   
   113  112  119 1   
   114  113  114 1   
   115  113  116 1   
   116  113  120 1   
   117  114  115 2   
   118  114  126 1   
   119  116  117 1   
   120  116  118 1   
   121  116  121 1   
   122  117  123 1   
   123  117  124 1   
   124  117  125 1   
   125  118  122 1   
   126  126  127 1   
   127  126  133 1   
   128  127  128 1   
   129  127  130 1   
   130  127  134 1   
   131  128  129 2   
   132  128  140 1   
   133  130  131 1   
   134  130  132 1   
   135  130  135 1   
   136  131  137 1   
   137  131  138 1   
   138  131  139 1   
   139  132  136 1   
   140  140  141 1   
   141  140  149 1   
   142  141  142 1   
   143  141  144 1   
   144  141  150 1   
   145  142  143 2   
   146  142  162 1   
   147  144  145 1   
   148  144  151 1   
   149  144  152 1   
   150  145  146 1   
   151  145  153 1   
   152  145  154 1   
   153  146  147 1   
   154  146  155 1   
   155  146  156 1   
   156  147  148 1   
   157  147  157 1   
   158  147  158 1   
   159  148  159 1   
   160  148  160 1   
   161  148  161 1   
   162  162  163 1   
   163  162  171 1   
   164  163  164 1   
   165  163  166 1   
   166  163  172 1   
   167  164  165 2   
   168  164  177 1   
   169  166  167 1   
   170  166  173 1   
   171  166  174 1   
   172  167  168 1   
   173  167  175 1   
   174  167  176 1   
   175  168  169 1   
   176  168  170 1   
   177  177  178 1   
   178  177  182 1   
   179  178  179 1   
   180  178  180 1   
   181  178  181 1   
   182  184  185 1   
   183  184  186 1   
   184  187  188 1   
   185  187  189 1   
   186  190  191 1   
   187  190  192 1   
@<TRIPOS>SUBSTRUCTURE
     1 MOL         1 TEMP              0 ****  ****    0 ROOT
