@<TRIPOS>MOLECULE
MOL
  178   175     1     0     0
SMALL
resp


@<TRIPOS>ATOM
      1 C1        -11.1440   -6.0820   -3.4640 c3        1 MOL     -0.348267
      2 C2        -10.3080   -5.4780   -2.3160 c         1 MOL      0.614540
      3 O1         -9.2250   -5.9910   -1.9680 o         1 MOL     -0.523086
      4 H1        -11.1220   -7.1700   -3.3960 hc        1 MOL      0.083001
      5 H2        -12.1740   -5.7350   -3.3870 hc        1 MOL      0.083001
      6 H3        -10.7260   -5.7710   -4.4220 hc        1 MOL      0.083001
      7 N1        -10.7360   -4.2880   -1.7930 n         1 MOL     -0.448101
      8 C3        -11.7980   -3.3370   -2.1890 c3        1 MOL      0.172175
      9 C4        -12.4840   -2.8540   -0.8880 c         1 MOL      0.374913
     10 O2        -12.3310   -3.4690    0.1740 o         1 MOL     -0.473567
     11 C5        -11.1690   -2.2120   -3.0040 c3        1 MOL     -0.337043
     12 C6        -10.1000   -1.5490   -2.1740 c         1 MOL      0.821928
     13 O3         -8.8870   -1.6380   -2.5350 o         1 MOL     -0.751749
     14 O4        -10.4000   -0.6930   -1.3320 o         1 MOL     -0.751749
     15 H4        -10.2480   -3.9350   -0.9890 hn        1 MOL      0.310765
     16 H5        -12.5380   -3.8390   -2.8150 h1        1 MOL      0.035007
     17 H6        -11.9310   -1.4790   -3.2740 hc        1 MOL      0.077577
     18 H7        -10.7830   -2.6530   -3.9130 hc        1 MOL      0.077577
     19 N2        -13.0940   -1.6480   -0.8280 n         1 MOL     -0.436910
     20 C7        -13.3980   -0.9290    0.4180 c3        1 MOL      0.402953
     21 C8        -12.4780   -0.9760    1.6580 c         1 MOL      0.332614
     22 O5        -12.9210   -0.8120    2.8280 o         1 MOL     -0.560339
     23 C9        -14.8730   -1.1500    0.8060 c3        1 MOL     -0.457649
     24 H8        -13.4160   -1.2290   -1.6870 hn        1 MOL      0.251225
     25 H9        -13.3550    0.1480    0.2820 h1        1 MOL     -0.005429
     26 H10       -15.5430   -1.1470   -0.0560 hc        1 MOL      0.107980
     27 H11       -15.0100   -2.1390    1.2590 hc        1 MOL      0.107980
     28 H12       -15.1250   -0.3590    1.5210 hc        1 MOL      0.107980
     29 N3        -11.1420   -1.0240    1.4520 n         1 MOL      0.074753
     30 C10        -9.9710   -0.8560    2.3160 c3        1 MOL     -0.045432
     31 C11        -9.3250    0.5020    1.9670 c         1 MOL      0.425764
     32 O6         -9.4950    1.0240    0.8830 o         1 MOL     -0.526007
     33 C12        -9.0010   -2.0430    2.2360 c3        1 MOL     -0.186732
     34 C13        -8.4750   -2.4110    0.8540 c         1 MOL      0.813913
     35 O7         -8.7720   -3.5230    0.4290 o         1 MOL     -0.697580
     36 O8         -7.7470   -1.6010    0.2690 o         1 MOL     -0.697580
     37 H13       -10.9570   -1.0780    0.4640 hn        1 MOL     -0.045382
     38 H14       -10.3250   -0.7590    3.3400 h1        1 MOL      0.049821
     39 H15        -9.5940   -2.8860    2.6010 hc        1 MOL      0.043148
     40 H16        -8.0970   -1.9140    2.8210 hc        1 MOL      0.043148
     41 N4         -8.4570    0.9690    2.8610 n         1 MOL     -0.382828
     42 C14        -7.6550    2.1650    2.7950 c3        1 MOL     -0.069865
     43 C15        -6.5560    2.1550    1.6730 c         1 MOL      0.540758
     44 O9         -6.6170    1.2680    0.8090 o         1 MOL     -0.573867
     45 H17        -8.2720    0.3750    3.6580 hn        1 MOL      0.304733
     46 H18        -7.1810    2.3880    3.7440 h1        1 MOL      0.080137
     47 H19        -8.2160    3.0730    2.5670 h1        1 MOL      0.080137
     48 N5         -5.6520    3.0890    1.6200 n         1 MOL     -0.324920
     49 C16        -4.6670    3.3110    0.5380 c3        1 MOL      0.035859
     50 C17        -3.2330    3.8000    1.0150 c         1 MOL      0.540010
     51 O10        -3.1570    4.6770    1.8920 o         1 MOL     -0.507079
     52 C18        -5.1690    4.2540   -0.5000 c3        1 MOL     -0.221671
     53 C19        -6.5610    3.9300   -1.0680 c         1 MOL      0.603926
     54 N6         -7.5170    4.8280   -0.8980 n         1 MOL     -0.740061
     55 O11        -6.7160    2.8370   -1.5930 o         1 MOL     -0.566778
     56 H20        -5.5990    3.7130    2.4130 hn        1 MOL      0.227215
     57 H21        -4.4330    2.3460    0.0890 h1        1 MOL      0.065869
     58 H22        -4.4310    4.3470   -1.3030 hc        1 MOL      0.078072
     59 H23        -5.2670    5.2100    0.0260 hc        1 MOL      0.078072
     60 H24        -7.3010    5.7570   -0.5720 hn        1 MOL      0.363414
     61 H25        -8.3940    4.5300   -1.3100 hn        1 MOL      0.363414
     62 N7         -2.1340    3.4750    0.3190 n         1 MOL     -0.476278
     63 C20        -0.7190    3.7750    0.4850 c3        1 MOL     -0.057433
     64 C21        -0.0050    3.0340    1.5420 c         1 MOL      0.716059
     65 O12        -0.6160    2.1020    2.1180 o         1 MOL     -0.588617
     66 H26        -2.4290    2.9190   -0.4810 hn        1 MOL      0.294613
     67 H27        -0.7600    4.7870    0.8940 h1        1 MOL      0.110703
     68 H28        -0.2760    3.7330   -0.5170 h1        1 MOL      0.110703
     69 N8          1.2140    3.3370    1.8880 n         1 MOL     -0.480791
     70 C22         2.0900    4.4370    1.2580 c3        1 MOL     -0.292779
     71 C23         3.2770    3.8380    0.4850 c         1 MOL      0.693158
     72 O13         4.1610    4.5940    0.0750 o         1 MOL     -0.550949
     73 C24         2.6340    5.3690    2.3350 c3        1 MOL      0.394019
     74 C25         1.4980    6.0790    2.9820 c3        1 MOL     -0.229139
     75 O14         3.2920    4.5840    3.3320 oh        1 MOL     -0.611555
     76 H29         1.6620    2.8070    2.6210 hn        1 MOL      0.337568
     77 H30         1.5620    5.0190    0.5070 h1        1 MOL      0.110913
     78 H31         3.3430    6.1290    2.0150 h1        1 MOL      0.026409
     79 H32         3.7010    5.1920    3.9470 ho        1 MOL      0.403836
     80 H33         0.5130    6.0260    2.5070 hc        1 MOL      0.049420
     81 H34         1.3550    5.7340    4.0000 hc        1 MOL      0.049420
     82 H35         1.7430    7.1260    3.1250 hc        1 MOL      0.049420
     83 N9          3.3720    2.5030    0.4290 n         1 MOL     -0.472521
     84 C26         4.4620    1.6660   -0.1120 c3        1 MOL     -0.126767
     85 C27         4.6390    2.0480   -1.6530 c         1 MOL      0.726289
     86 O15         3.6380    2.1670   -2.4020 o         1 MOL     -0.611789
     87 C28         4.1620    0.1310    0.0920 c3        1 MOL     -0.004188
     88 C29         3.7780   -0.1760    1.5230 c3        1 MOL      0.082296
     89 C30         5.3860   -0.7200   -0.2110 c3        1 MOL     -0.064933
     90 C31         3.1690   -1.5620    1.7680 c3        1 MOL     -0.302104
     91 H36         2.5540    2.0280    0.7910 hn        1 MOL      0.221464
     92 H37         5.3940    1.9060    0.4010 h1        1 MOL      0.141678
     93 H38         3.3860   -0.1360   -0.6300 hc        1 MOL      0.041500
     94 H39         2.9490    0.4100    1.9070 hc        1 MOL      0.031742
     95 H40         4.6220   -0.0150    2.1860 hc        1 MOL      0.031742
     96 H41         5.1260   -1.7550   -0.0150 hc        1 MOL      0.020533
     97 H42         5.6320   -0.6390   -1.2670 hc        1 MOL      0.020533
     98 H43         6.2750   -0.4450    0.3540 hc        1 MOL      0.020533
     99 H44         2.5520   -1.7500    0.8980 hc        1 MOL      0.073212
    100 H45         4.0010   -2.2680    1.7870 hc        1 MOL      0.073212
    101 H46         2.5960   -1.6060    2.6980 hc        1 MOL      0.073212
    102 N10         5.8410    2.2100   -2.2890 n         1 MOL     -0.663681
    103 C32         7.1640    2.3270   -1.6680 c3        1 MOL      0.176106
    104 C33         8.0360    1.1830   -2.1430 c         1 MOL      0.684498
    105 O16         7.6120    0.4340   -3.0880 o         1 MOL     -0.567208
    106 C34         7.8200    3.6920   -1.8840 c3        1 MOL     -0.130087
    107 C35         7.6860    4.2980   -3.3290 c         1 MOL      0.634204
    108 O17         6.8580    5.2200   -3.6070 o         1 MOL     -0.702868
    109 O18         8.4170    3.7310   -4.1550 o         1 MOL     -0.702868
    110 H47         5.8660    2.5140   -3.2560 hn        1 MOL      0.400291
    111 H48         7.1750    2.2040   -0.5900 h1        1 MOL     -0.006238
    112 H49         8.8350    3.6030   -1.5020 hc        1 MOL      0.005994
    113 H50         7.4730    4.4780   -1.2200 hc        1 MOL      0.005994
    114 N11         9.2450    1.0670   -1.6240 n         1 MOL     -0.676727
    115 C36        10.0890   -0.1200   -1.5720 c3        1 MOL      0.059736
    116 C37        11.0190    0.0950   -0.4420 c         1 MOL      0.569478
    117 O19        11.5080    1.1550   -0.2290 o         1 MOL     -0.534822
    118 C38        10.8990   -0.2730   -2.8920 c3        1 MOL     -0.069534
    119 C39        11.9160   -1.3680   -2.9790 ca        1 MOL     -0.014652
    120 C40        13.2760   -0.9650   -2.8890 ca        1 MOL     -0.108683
    121 C41        11.5510   -2.7190   -3.0690 ca        1 MOL     -0.108683
    122 C42        14.2680   -2.0000   -2.9240 ca        1 MOL     -0.123874
    123 C43        12.5650   -3.7440   -3.1220 ca        1 MOL     -0.123874
    124 C44        13.8870   -3.3250   -2.9700 ca        1 MOL     -0.135721
    125 H51         9.4270    1.7890   -0.9370 hn        1 MOL      0.353018
    126 H52         9.4650   -0.9730   -1.3010 h1        1 MOL      0.047745
    127 H53        11.4350    0.5940   -3.2950 hc        1 MOL      0.090208
    128 H54        10.1700   -0.4970   -3.6660 hc        1 MOL      0.090208
    129 H55        13.6350    0.0430   -2.8470 ha        1 MOL      0.111277
    130 H56        10.4910   -2.9100   -3.0110 ha        1 MOL      0.111277
    131 H57        15.3260   -1.7550   -2.8730 ha        1 MOL      0.104798
    132 H58        12.2700   -4.7790   -3.1020 ha        1 MOL      0.104798
    133 H59        14.6120   -4.1030   -2.7700 ha        1 MOL      0.093464
    134 N12        11.2740   -0.9520    0.3890 n         1 MOL     -0.314391
    135 C45        10.6810   -2.3140    0.4660 c3        1 MOL      0.643827
    136 C46         9.2360   -2.2770    0.9840 c         1 MOL      0.471323
    137 O20         8.6940   -1.1640    0.9910 o         1 MOL     -0.526635
    138 C47        11.6380   -3.1240    1.3470 c3        1 MOL     -0.233265
    139 C48        12.9630   -2.3030    1.4570 c3        1 MOL      0.047175
    140 C49        12.5190   -0.8810    1.1720 c3        1 MOL     -0.058491
    141 H60        10.6670   -2.8650   -0.4730 h1        1 MOL     -0.158013
    142 H61        11.1880   -3.2020    2.3400 hc        1 MOL      0.041149
    143 H62        11.7950   -4.1310    0.9800 hc        1 MOL      0.041149
    144 H63        13.4890   -2.4050    2.4060 hc        1 MOL      0.005476
    145 H64        13.6370   -2.5910    0.6500 hc        1 MOL      0.005476
    146 H65        12.3390   -0.2980    2.0760 h1        1 MOL      0.059275
    147 H66        13.2770   -0.4890    0.4920 h1        1 MOL      0.059275
    148 N13         8.6770   -3.4300    1.4010 n         1 MOL     -0.754727
    149 C50         7.3170   -3.5470    2.0530 c3        1 MOL      0.626372
    150 C51         6.4680   -4.7910    1.7180 c         1 MOL      0.259554
    151 O21         5.8100   -5.4330    2.5480 o         1 MOL     -0.467232
    152 C52         7.4820   -3.3530    3.5610 c3        1 MOL     -0.292444
    153 C53         6.1330   -2.8750    4.1720 c3        1 MOL     -0.241769
    154 C54         6.3310   -2.2410    5.6120 c         1 MOL      0.801703
    155 O22         5.7170   -2.7670    6.5260 o         1 MOL     -0.757090
    156 O23         6.9300   -1.1910    5.7870 o         1 MOL     -0.757090
    157 H67         9.2350   -4.2760    1.4610 hn        1 MOL      0.285888
    158 H68         6.7330   -2.7630    1.5780 h1        1 MOL      0.030165
    159 H69         8.1340   -2.4800    3.6010 hc        1 MOL      0.074949
    160 H70         7.8330   -4.2300    4.1020 hc        1 MOL      0.074949
    161 H71         5.4000   -3.6660    4.0940 hc        1 MOL      0.042729
    162 H72         5.7480   -2.0560    3.5560 hc        1 MOL      0.042729
    163 N14         6.5530   -5.3280    0.4570 n         1 MOL     -0.360172
    164 C55         7.1200   -4.7260   -0.8210 c3        1 MOL     -0.053226
    165 H73         6.3680   -4.7710   -1.6080 h1        1 MOL      0.053422
    166 H74         7.3980   -3.6870   -0.6420 h1        1 MOL      0.053422
    167 H75         8.0020   -5.2900   -1.1290 h1        1 MOL      0.053422
    168 H76         6.1260   -6.2300    0.3420 hn        1 MOL      0.268068
    169 Ca1        -7.9270    0.4800   -1.3660 Ca        1 MOL      1.769702
    170 O24        -7.5720    0.9860   -3.9560 oh        1 MOL     -0.855849
    171 H77        -8.1260    0.8720   -4.7240 ho        1 MOL      0.424377
    172 H78        -6.9070    1.6160   -4.2340 ho        1 MOL      0.424377
    173 O25        -9.5020    2.7150   -2.3240 oh        1 MOL     -0.855849
    174 H79        -9.4160    3.3950   -2.9940 ho        1 MOL      0.424377
    175 H80       -10.3930    2.8170   -1.9990 ho        1 MOL      0.424377
    176 O26        -5.2700   -0.2140   -1.8760 oh        1 MOL     -0.855849
    177 H81        -4.7400    0.3050   -2.4790 ho        1 MOL      0.424377
    178 H82        -4.6660   -0.8690   -1.5210 ho        1 MOL      0.424377
@<TRIPOS>BOND
     1    1    2 1   
     2    1    4 1   
     3    1    5 1   
     4    1    6 1   
     5    2    3 2   
     6    2    7 1   
     7    7    8 1   
     8    7   15 1   
     9    8    9 1   
    10    8   11 1   
    11    8   16 1   
    12    9   10 2   
    13    9   19 1   
    14   11   12 1   
    15   11   17 1   
    16   11   18 1   
    17   12   13 1   
    18   12   14 1   
    19   19   20 1   
    20   19   24 1   
    21   20   21 1   
    22   20   23 1   
    23   20   25 1   
    24   21   22 2   
    25   21   29 1   
    26   23   26 1   
    27   23   27 1   
    28   23   28 1   
    29   29   30 1   
    30   29   37 1   
    31   30   31 1   
    32   30   33 1   
    33   30   38 1   
    34   31   32 2   
    35   31   41 1   
    36   33   34 1   
    37   33   39 1   
    38   33   40 1   
    39   34   35 1   
    40   34   36 1   
    41   41   42 1   
    42   41   45 1   
    43   42   43 1   
    44   42   46 1   
    45   42   47 1   
    46   43   44 2   
    47   43   48 1   
    48   48   49 1   
    49   48   56 1   
    50   49   50 1   
    51   49   52 1   
    52   49   57 1   
    53   50   51 2   
    54   50   62 1   
    55   52   53 1   
    56   52   58 1   
    57   52   59 1   
    58   53   54 1   
    59   53   55 2   
    60   54   60 1   
    61   54   61 1   
    62   62   63 1   
    63   62   66 1   
    64   63   64 1   
    65   63   67 1   
    66   63   68 1   
    67   64   65 2   
    68   64   69 1   
    69   69   70 1   
    70   69   76 1   
    71   70   71 1   
    72   70   73 1   
    73   70   77 1   
    74   71   72 2   
    75   71   83 1   
    76   73   74 1   
    77   73   75 1   
    78   73   78 1   
    79   74   80 1   
    80   74   81 1   
    81   74   82 1   
    82   75   79 1   
    83   83   84 1   
    84   83   91 1   
    85   84   85 1   
    86   84   87 1   
    87   84   92 1   
    88   85   86 2   
    89   85  102 1   
    90   87   88 1   
    91   87   89 1   
    92   87   93 1   
    93   88   90 1   
    94   88   94 1   
    95   88   95 1   
    96   89   96 1   
    97   89   97 1   
    98   89   98 1   
    99   90   99 1   
   100   90  100 1   
   101   90  101 1   
   102  102  103 1   
   103  102  110 1   
   104  103  104 1   
   105  103  106 1   
   106  103  111 1   
   107  104  105 2   
   108  104  114 1   
   109  106  107 1   
   110  106  112 1   
   111  106  113 1   
   112  107  108 1   
   113  107  109 1   
   114  114  115 1   
   115  114  125 1   
   116  115  116 1   
   117  115  118 1   
   118  115  126 1   
   119  116  117 2   
   120  116  134 1   
   121  118  119 1   
   122  118  127 1   
   123  118  128 1   
   124  119  120 ar  
   125  119  121 ar  
   126  120  122 ar  
   127  120  129 1   
   128  121  123 ar  
   129  121  130 1   
   130  122  124 ar  
   131  122  131 1   
   132  123  124 ar  
   133  123  132 1   
   134  124  133 1   
   135  134  135 1   
   136  134  140 1   
   137  135  136 1   
   138  135  138 1   
   139  135  141 1   
   140  136  137 2   
   141  136  148 1   
   142  138  139 1   
   143  138  142 1   
   144  138  143 1   
   145  139  140 1   
   146  139  144 1   
   147  139  145 1   
   148  140  146 1   
   149  140  147 1   
   150  148  149 1   
   151  148  157 1   
   152  149  150 1   
   153  149  152 1   
   154  149  158 1   
   155  150  151 2   
   156  150  163 1   
   157  152  153 1   
   158  152  159 1   
   159  152  160 1   
   160  153  154 1   
   161  153  161 1   
   162  153  162 1   
   163  154  155 1   
   164  154  156 1   
   165  163  164 1   
   166  163  168 1   
   167  164  165 1   
   168  164  166 1   
   169  164  167 1   
   170  170  171 1   
   171  170  172 1   
   172  173  174 1   
   173  173  175 1   
   174  176  177 1   
   175  176  178 1   
@<TRIPOS>SUBSTRUCTURE
     1 MOL         1 TEMP              0 ****  ****    0 ROOT
