@<TRIPOS>MOLECULE
MOL
  185   180     1     0     0
SMALL
resp


@<TRIPOS>ATOM
      1 C1         -5.9940    1.1980   -4.1710 c3        1 MOL     -0.256413
      2 C2         -6.3330    1.3760   -2.6520 c         1 MOL      0.597130
      3 O1         -5.4980    1.4660   -1.7620 o         1 MOL     -0.499865
      4 H1         -6.8670    0.8090   -4.6940 hc        1 MOL      0.071959
      5 H2         -5.7150    2.1610   -4.5980 hc        1 MOL      0.071959
      6 H3         -5.1640    0.4980   -4.2790 hc        1 MOL      0.071959
      7 N1         -7.5770    1.4050   -2.3600 n         1 MOL     -0.597603
      8 C3         -8.1660    1.6830   -1.0110 c3        1 MOL      0.194385
      9 C4         -7.7770    0.6260    0.0490 c         1 MOL      0.514326
     10 O2         -7.0860    0.9240    0.9990 o         1 MOL     -0.503946
     11 C5         -7.9010    3.1740   -0.6130 c3        1 MOL     -0.337231
     12 C6         -8.4150    4.0890   -1.7260 c         1 MOL      0.791251
     13 O3         -7.7130    5.0590   -2.1140 o         1 MOL     -0.699989
     14 O4         -9.4810    3.8060   -2.2430 o         1 MOL     -0.699989
     15 H4         -8.2630    1.3380   -3.1030 hn        1 MOL      0.339720
     16 H5         -9.2470    1.6020   -1.1570 h1        1 MOL      0.015665
     17 H6         -6.8880    3.4460   -0.3130 hc        1 MOL      0.099474
     18 H7         -8.4880    3.3440    0.2840 hc        1 MOL      0.099474
     19 N2         -8.2550   -0.6000   -0.1340 n         1 MOL     -0.514033
     20 C7         -7.9600   -1.7560    0.7350 c3        1 MOL      0.162174
     21 C8         -6.4890   -2.2080    0.8150 c         1 MOL      0.617820
     22 O5         -6.2250   -3.4040    0.9740 o         1 MOL     -0.609255
     23 C9         -8.9280   -2.8930    0.3700 c3        1 MOL     -0.320620
     24 C10       -10.4000   -2.5220    0.6370 c3        1 MOL      0.322365
     25 C11       -11.4000   -3.6990    0.2600 c3        1 MOL     -0.298565
     26 C12       -11.4200   -3.9880   -1.2000 c3        1 MOL      0.261535
     27 N3        -12.3670   -5.0890   -1.5400 n4        1 MOL     -0.448477
     28 H8         -8.6610   -0.6950   -1.0500 hn        1 MOL      0.260387
     29 H9         -8.2170   -1.4720    1.7550 h1        1 MOL      0.069763
     30 H10        -8.7580   -3.7050    1.0820 hc        1 MOL      0.094909
     31 H11        -8.7330   -3.1850   -0.6640 hc        1 MOL      0.094909
     32 H12       -10.5410   -1.6010    0.0700 hc        1 MOL     -0.028834
     33 H13       -10.5760   -2.2700    1.6790 hc        1 MOL     -0.028834
     34 H14       -12.3710   -3.2850    0.5280 hc        1 MOL      0.080885
     35 H15       -11.1230   -4.6180    0.7600 hc        1 MOL      0.080885
     36 H16       -10.4590   -4.2120   -1.6670 hx        1 MOL      0.020426
     37 H17       -11.7540   -3.0460   -1.6520 hx        1 MOL      0.020426
     38 H18       -12.1260   -5.9140   -1.0080 hn        1 MOL      0.334455
     39 H19       -13.2840   -4.8230   -1.1890 hn        1 MOL      0.334455
     40 H20       -12.3580   -5.3160   -2.5280 hn        1 MOL      0.334455
     41 N4         -5.4630   -1.3730    0.6780 n         1 MOL     -0.566211
     42 C13        -3.9970   -1.7010    0.6490 c3        1 MOL      0.008994
     43 C14        -3.5430   -2.3950    1.8890 c         1 MOL      0.691331
     44 O6         -3.9040   -1.9970    2.9810 o         1 MOL     -0.532307
     45 C15        -3.1940   -0.4000    0.3770 c3        1 MOL     -0.054565
     46 C16        -1.6910   -0.6620   -0.0720 c         1 MOL      0.244594
     47 O7         -1.4520   -0.7460   -1.2720 o         1 MOL     -0.578905
     48 O8         -0.7690   -0.7350    0.8070 o         1 MOL     -0.578905
     49 H21        -5.6280   -0.3890    0.5430 hn        1 MOL      0.312270
     50 H22        -3.9050   -2.4140   -0.1730 h1        1 MOL      0.073804
     51 H23        -3.1700    0.0810    1.3560 hc        1 MOL      0.114152
     52 H24        -3.7130    0.3010   -0.2770 hc        1 MOL      0.114152
     53 N5         -2.8010   -3.4450    1.6370 n         1 MOL     -0.346170
     54 C17        -2.2490   -4.3030    2.7080 c3        1 MOL     -0.166805
     55 C18        -1.2150   -3.6570    3.6030 c         1 MOL      0.560735
     56 O9         -1.0780   -4.0980    4.6880 o         1 MOL     -0.570903
     57 H25        -2.5690   -3.6740    0.6810 hn        1 MOL      0.201945
     58 H26        -1.7350   -5.1690    2.2750 h1        1 MOL      0.106423
     59 H27        -3.0260   -4.6780    3.3800 h1        1 MOL      0.106423
     60 N6         -0.5470   -2.6160    3.1350 n         1 MOL     -0.306721
     61 C19         0.2510   -1.7470    4.0780 c3        1 MOL      0.156012
     62 C20        -0.2290   -0.2960    4.0950 c         1 MOL      0.272191
     63 O10         0.4030    0.5450    4.7690 o         1 MOL     -0.500039
     64 C21         1.7650   -1.9930    3.8120 c3        1 MOL     -0.413505
     65 C22         2.3430   -1.2330    2.5600 c         1 MOL      0.722243
     66 N7          3.3360   -0.4300    2.7350 n         1 MOL     -0.667594
     67 O11         1.9630   -1.3890    1.4150 o         1 MOL     -0.672869
     68 H28        -0.7290   -2.2980    2.1840 hn        1 MOL      0.259740
     69 H29         0.1970   -2.1050    5.1110 h1        1 MOL      0.117440
     70 H30         1.9040   -3.0270    3.5240 hc        1 MOL      0.132137
     71 H31         2.3130   -1.7530    4.7230 hc        1 MOL      0.132137
     72 H32         3.7130   -0.2310    3.6560 hn        1 MOL      0.308923
     73 H33         3.9200   -0.0300    2.0060 hn        1 MOL      0.308923
     74 N8         -1.4170    0.0530    3.5650 n         1 MOL     -0.020596
     75 C23        -1.8840    1.4360    3.4920 c3        1 MOL     -0.244234
     76 C24        -1.2890    2.4670    2.4600 c         1 MOL      0.491297
     77 O12        -1.4850    3.6430    2.6110 o         1 MOL     -0.495386
     78 H34        -2.0320   -0.7150    3.3360 hn        1 MOL      0.059331
     79 H35        -1.8300    1.9080    4.4740 h1        1 MOL      0.124231
     80 H36        -2.9490    1.4690    3.2630 h1        1 MOL      0.124231
     81 N9         -0.5580    1.9890    1.3740 n         1 MOL     -0.388980
     82 C25         0.0450    2.8370    0.3570 c3        1 MOL      0.173637
     83 C26         1.3100    2.0990   -0.1130 c         1 MOL      0.140428
     84 O13         1.3890    0.8940   -0.1850 o         1 MOL     -0.269716
     85 C27        -0.8650    3.0530   -0.8560 c3        1 MOL     -0.224800
     86 C28        -2.0750    3.9070   -0.6860 ca        1 MOL      0.338041
     87 C29        -2.0300    5.2970   -0.4130 ca        1 MOL     -0.392681
     88 C30        -3.2680    3.4600   -1.2790 ca        1 MOL     -0.392681
     89 C31        -3.1320    6.1340   -0.4340 ca        1 MOL     -0.033106
     90 C32        -4.3940    4.3230   -1.3790 ca        1 MOL     -0.033106
     91 C33        -4.3240    5.6410   -1.0030 ca        1 MOL      0.166158
     92 O14        -5.4700    6.3930   -1.0780 oh        1 MOL     -0.523470
     93 H37        -0.6180    0.9950    1.2580 hn        1 MOL      0.266209
     94 H38         0.2770    3.7700    0.8520 h1        1 MOL      0.036331
     95 H39        -1.1010    2.0630   -1.2430 hc        1 MOL      0.069973
     96 H40        -0.2400    3.5460   -1.6010 hc        1 MOL      0.069973
     97 H41        -1.0950    5.7440   -0.1190 ha        1 MOL      0.135121
     98 H42        -3.3320    2.5240   -1.8070 ha        1 MOL      0.135121
     99 H43        -3.0530    7.1780   -0.1770 ha        1 MOL      0.100966
    100 H44        -5.2420    3.8810   -1.8840 ha        1 MOL      0.100966
    101 H45        -6.1670    5.9670   -1.5790 ho        1 MOL      0.394181
    102 N10         2.3620    2.9110   -0.2960 n         1 MOL     -0.061368
    103 C34         3.6600    2.4500   -0.7750 c3        1 MOL     -0.300348
    104 C35         4.5090    2.0330    0.4660 c         1 MOL      0.458116
    105 O15         5.0700    0.9070    0.4000 o         1 MOL     -0.509964
    106 C36         4.3760    3.4970   -1.8010 c3        1 MOL      0.110986
    107 C37         3.3040    3.9360   -2.9250 c3        1 MOL     -0.002647
    108 C38         5.6310    2.8210   -2.4360 c3        1 MOL     -0.410628
    109 C39         2.5910    2.8050   -3.7040 c3        1 MOL     -0.525132
    110 H46         2.2880    3.8890   -0.0740 hn        1 MOL      0.228270
    111 H47         3.4750    1.5240   -1.3230 h1        1 MOL      0.086042
    112 H48         4.6870    4.4120   -1.3230 hc        1 MOL      0.007766
    113 H49         3.7720    4.6200   -3.6460 hc        1 MOL      0.029063
    114 H50         2.5520    4.5070   -2.3810 hc        1 MOL      0.029063
    115 H51         5.4390    1.8730   -2.9390 hc        1 MOL      0.130129
    116 H52         6.1750    3.5400   -3.0680 hc        1 MOL      0.130129
    117 H53         6.3210    2.7050   -1.5880 hc        1 MOL      0.130129
    118 H54         3.4090    2.2390   -4.1540 hc        1 MOL      0.163102
    119 H55         1.9910    2.1940   -3.0350 hc        1 MOL      0.163102
    120 H56         2.0780    3.2890   -4.5390 hc        1 MOL      0.163102
    121 N11         4.6510    2.8800    1.4960 n         1 MOL     -0.234835
    122 C40         5.5130    2.8430    2.7090 c3        1 MOL     -0.061308
    123 C41         6.9940    2.5600    2.3970 c         1 MOL      0.426081
    124 O16         7.7790    2.1530    3.2420 o         1 MOL     -0.486915
    125 C42         5.3750    4.1640    3.4690 c3        1 MOL      0.139837
    126 O17         4.0310    4.1560    3.9560 oh        1 MOL     -0.578818
    127 H57         3.8760    3.5090    1.6290 hn        1 MOL      0.214898
    128 H58         5.1960    2.1040    3.4480 h1        1 MOL      0.141537
    129 H59         5.5670    4.9990    2.7900 h1        1 MOL      0.044990
    130 H60         6.1330    4.2660    4.2340 h1        1 MOL      0.044990
    131 H61         3.8630    4.9340    4.4900 ho        1 MOL      0.416947
    132 N12         7.3520    2.7420    1.1190 n         1 MOL     -0.404382
    133 C43         8.5130    2.1680    0.3810 c3        1 MOL      0.277461
    134 C44         8.7280    0.6170    0.3090 c         1 MOL      0.424803
    135 O18         9.8040    0.1780   -0.0320 o         1 MOL     -0.493151
    136 C45         9.8290    2.8760    0.7970 c3        1 MOL     -0.346122
    137 H62         6.7370    3.3340    0.5840 hn        1 MOL      0.238319
    138 H63         8.2280    2.4680   -0.6230 h1        1 MOL      0.000378
    139 H64         9.8080    3.9620    0.7010 hc        1 MOL      0.101372
    140 H65        10.0070    2.6130    1.8330 hc        1 MOL      0.101372
    141 H66        10.6180    2.4910    0.1550 hc        1 MOL      0.101372
    142 N13         7.6850   -0.2110    0.6570 n         1 MOL     -0.442523
    143 C46         7.6180   -1.7250    0.3820 c3        1 MOL      0.273683
    144 C47         7.1070   -2.0710   -1.0850 c         1 MOL      0.464464
    145 O19         6.3780   -1.2690   -1.7320 o         1 MOL     -0.502368
    146 C48         6.6630   -2.3040    1.4750 c3        1 MOL     -0.133025
    147 H67         6.8000    0.2590    0.8340 hn        1 MOL      0.230363
    148 H68         8.5970   -2.2020    0.4510 h1        1 MOL      0.016640
    149 H69         7.0640   -2.1540    2.4760 hc        1 MOL      0.046173
    150 H70         5.6390   -1.9520    1.3620 hc        1 MOL      0.046173
    151 H71         6.7660   -3.3880    1.4410 hc        1 MOL      0.046173
    152 N14         7.4190   -3.2490   -1.6370 n         1 MOL     -0.597681
    153 C49         6.6890   -3.9670   -2.6380 c3        1 MOL      0.039262
    154 C50         6.9090   -3.3020   -3.9980 c         1 MOL      0.420849
    155 O20         6.2760   -3.6850   -4.9650 o         1 MOL     -0.524317
    156 C51         5.2220   -4.1770   -2.3210 c3        1 MOL     -0.031392
    157 C52         4.8550   -4.7780   -0.9180 c3        1 MOL      0.106158
    158 C53         3.3310   -4.6160   -0.6420 c         1 MOL      0.572193
    159 O21         2.7630   -5.7160   -0.5110 o         1 MOL     -0.678226
    160 O22         2.7030   -3.5370   -0.8410 o         1 MOL     -0.678226
    161 H72         8.0920   -3.8070   -1.1230 hn        1 MOL      0.329658
    162 H73         7.1480   -4.9410   -2.7760 h1        1 MOL      0.082196
    163 H74         4.7200   -4.8320   -3.0330 hc        1 MOL      0.043967
    164 H75         4.8590   -3.1540   -2.4190 hc        1 MOL      0.043967
    165 H76         5.4090   -4.2740   -0.1320 hc        1 MOL     -0.040998
    166 H77         5.1250   -5.8400   -0.8500 hc        1 MOL     -0.040998
    167 N15         7.7980   -2.3220   -4.0880 n         1 MOL     -0.239196
    168 C54         7.9860   -1.5600   -5.3270 c3        1 MOL     -0.096439
    169 H78         7.3830   -2.0020   -6.1190 h1        1 MOL      0.069399
    170 H79         7.6770   -0.5270   -5.1690 h1        1 MOL      0.069399
    171 H80         9.0380   -1.5860   -5.6130 h1        1 MOL      0.069399
    172 H81         8.4270   -2.1020   -3.3300 hn        1 MOL      0.241736
    173 Ca1         1.1380   -1.5550   -1.0030 Ca        1 MOL      1.779543
    174 O23         0.3970   -3.3310   -2.9700 oh        1 MOL     -0.869398
    175 H82         0.8270   -4.1700   -3.1290 ho        1 MOL      0.424230
    176 H83        -0.3220   -3.3110   -3.6080 ho        1 MOL      0.424230
    177 O24        -0.1920   -3.7340    0.0710 oh        1 MOL     -0.869398
    178 H84         0.2410   -4.5560    0.2970 ho        1 MOL      0.424230
    179 H85        -0.9110   -4.0000   -0.5110 ho        1 MOL      0.424230
    180 O25         3.7350   -0.8290   -1.4690 oh        1 MOL     -0.869398
    181 H86         4.1070   -0.1390   -0.9250 ho        1 MOL      0.424230
    182 H87         4.4880   -1.2730   -1.8530 ho        1 MOL      0.424230
    183 O26         0.9950   -0.4270   -3.3550 oh        1 MOL     -0.869398
    184 H88         1.6020   -0.6390   -4.0510 ho        1 MOL      0.424230
    185 H89         0.3480    0.1540   -3.7580 ho        1 MOL      0.424230
@<TRIPOS>BOND
     1    1    2 1   
     2    1    4 1   
     3    1    5 1   
     4    1    6 1   
     5    2    3 2   
     6    2    7 1   
     7    7    8 1   
     8    7   15 1   
     9    8    9 1   
    10    8   11 1   
    11    8   16 1   
    12    9   10 2   
    13    9   19 1   
    14   11   12 1   
    15   11   17 1   
    16   11   18 1   
    17   12   13 1   
    18   12   14 1   
    19   19   20 1   
    20   19   28 1   
    21   20   21 1   
    22   20   23 1   
    23   20   29 1   
    24   21   22 2   
    25   21   41 1   
    26   23   24 1   
    27   23   30 1   
    28   23   31 1   
    29   24   25 1   
    30   24   32 1   
    31   24   33 1   
    32   25   26 1   
    33   25   34 1   
    34   25   35 1   
    35   26   27 1   
    36   26   36 1   
    37   26   37 1   
    38   27   38 1   
    39   27   39 1   
    40   27   40 1   
    41   41   42 1   
    42   41   49 1   
    43   42   43 1   
    44   42   45 1   
    45   42   50 1   
    46   43   44 2   
    47   43   53 1   
    48   45   46 1   
    49   45   51 1   
    50   45   52 1   
    51   46   47 1   
    52   46   48 1   
    53   53   54 1   
    54   53   57 1   
    55   54   55 1   
    56   54   58 1   
    57   54   59 1   
    58   55   56 2   
    59   55   60 1   
    60   60   61 1   
    61   60   68 1   
    62   61   62 1   
    63   61   64 1   
    64   61   69 1   
    65   62   63 2   
    66   62   74 1   
    67   64   65 1   
    68   64   70 1   
    69   64   71 1   
    70   65   66 1   
    71   65   67 2   
    72   66   72 1   
    73   66   73 1   
    74   74   75 1   
    75   74   78 1   
    76   75   76 1   
    77   75   79 1   
    78   75   80 1   
    79   76   77 2   
    80   76   81 1   
    81   81   82 1   
    82   81   93 1   
    83   82   83 1   
    84   82   85 1   
    85   82   94 1   
    86   83   84 2   
    87   83  102 1   
    88   85   86 1   
    89   85   95 1   
    90   85   96 1   
    91   86   87 ar  
    92   86   88 ar  
    93   87   89 ar  
    94   87   97 1   
    95   88   90 ar  
    96   88   98 1   
    97   89   91 ar  
    98   89   99 1   
    99   90   91 ar  
   100   90  100 1   
   101   91   92 1   
   102   92  101 1   
   103  102  103 1   
   104  102  110 1   
   105  103  104 1   
   106  103  106 1   
   107  103  111 1   
   108  104  105 2   
   109  104  121 1   
   110  106  107 1   
   111  106  108 1   
   112  106  112 1   
   113  107  109 1   
   114  107  113 1   
   115  107  114 1   
   116  108  115 1   
   117  108  116 1   
   118  108  117 1   
   119  109  118 1   
   120  109  119 1   
   121  109  120 1   
   122  121  122 1   
   123  121  127 1   
   124  122  123 1   
   125  122  125 1   
   126  122  128 1   
   127  123  124 2   
   128  123  132 1   
   129  125  126 1   
   130  125  129 1   
   131  125  130 1   
   132  126  131 1   
   133  132  133 1   
   134  132  137 1   
   135  133  134 1   
   136  133  136 1   
   137  133  138 1   
   138  134  135 2   
   139  134  142 1   
   140  136  139 1   
   141  136  140 1   
   142  136  141 1   
   143  142  143 1   
   144  142  147 1   
   145  143  144 1   
   146  143  146 1   
   147  143  148 1   
   148  144  145 2   
   149  144  152 1   
   150  146  149 1   
   151  146  150 1   
   152  146  151 1   
   153  152  153 1   
   154  152  161 1   
   155  153  154 1   
   156  153  156 1   
   157  153  162 1   
   158  154  155 2   
   159  154  167 1   
   160  156  157 1   
   161  156  163 1   
   162  156  164 1   
   163  157  158 1   
   164  157  165 1   
   165  157  166 1   
   166  158  159 1   
   167  158  160 1   
   168  167  168 1   
   169  167  172 1   
   170  168  169 1   
   171  168  170 1   
   172  168  171 1   
   173  174  175 1   
   174  174  176 1   
   175  177  178 1   
   176  177  179 1   
   177  180  181 1   
   178  180  182 1   
   179  183  184 1   
   180  183  185 1   
@<TRIPOS>SUBSTRUCTURE
     1 MOL         1 TEMP              0 ****  ****    0 ROOT
