@<TRIPOS>MOLECULE
MOL
  184   179     1     0     0
SMALL
resp


@<TRIPOS>ATOM
      1 C1          2.3020    5.5570   -2.4040 c3        1 MOL     -0.461224
      2 C2          3.7550    5.7110   -1.7910 c         1 MOL      0.740599
      3 O1          3.8020    6.2360   -0.6940 o         1 MOL     -0.584967
      4 H1          2.2800    4.6980   -3.0760 hc        1 MOL      0.112383
      5 H2          1.5820    5.4060   -1.6000 hc        1 MOL      0.112383
      6 H3          2.0440    6.4590   -2.9590 hc        1 MOL      0.112383
      7 N1          4.7890    5.1290   -2.4220 n         1 MOL     -0.699627
      8 C3          6.1220    5.3300   -1.8260 c3        1 MOL      0.370264
      9 C4          6.3950    4.3420   -0.6600 c         1 MOL      0.500642
     10 O2          7.1090    3.3360   -0.8550 o         1 MOL     -0.532361
     11 C5          7.2090    5.3580   -2.9450 c3        1 MOL     -0.277696
     12 C6          8.6140    5.7390   -2.5530 c         1 MOL      0.773367
     13 O3          8.9330    6.3960   -1.5580 o         1 MOL     -0.749877
     14 O4          9.4310    5.2870   -3.3990 o         1 MOL     -0.749877
     15 H4          4.6370    4.5760   -3.2440 hn        1 MOL      0.351606
     16 H5          6.1530    6.3180   -1.3660 h1        1 MOL     -0.023535
     17 H6          6.9360    6.0580   -3.7340 hc        1 MOL      0.026658
     18 H7          7.1970    4.3400   -3.3320 hc        1 MOL      0.026658
     19 N2          5.8260    4.6050    0.5060 n         1 MOL     -0.572719
     20 C7          6.0120    3.8250    1.7150 c3        1 MOL      0.554277
     21 C8          4.6440    3.4670    2.3560 c         1 MOL      0.419322
     22 O5          3.7560    4.2930    2.2710 o         1 MOL     -0.527396
     23 C9          6.8580    4.6230    2.6920 c3        1 MOL     -0.469174
     24 H8          5.1280    5.3310    0.4850 hn        1 MOL      0.297372
     25 H9          6.5740    2.9090    1.4990 h1        1 MOL     -0.073035
     26 H10         7.0940    4.1200    3.6330 hc        1 MOL      0.105893
     27 H11         7.8270    4.8120    2.2270 hc        1 MOL      0.105893
     28 H12         6.4060    5.6250    2.7510 hc        1 MOL      0.105893
     29 N3          4.4180    2.3210    2.9710 n         1 MOL     -0.454735
     30 C10         5.3100    1.1580    2.9470 c3        1 MOL      0.016956
     31 C11         5.3350    0.5430    1.4830 c         1 MOL      0.636414
     32 O6          4.3770    0.7570    0.7500 o         1 MOL     -0.555203
     33 C12         4.6820    0.0600    3.8500 c3        1 MOL     -0.377072
     34 C13         3.1410   -0.1460    3.7260 c         1 MOL      0.835924
     35 O7          2.6930   -1.2970    3.4290 o         1 MOL     -0.759385
     36 O8          2.3070    0.7240    4.0420 o         1 MOL     -0.759385
     37 H13         3.5140    2.2430    3.3950 hn        1 MOL      0.310939
     38 H14         6.3050    1.3540    3.3490 h1        1 MOL      0.081703
     39 H15         4.9180    0.3540    4.8800 hc        1 MOL      0.095085
     40 H16         5.1910   -0.8970    3.7390 hc        1 MOL      0.095085
     41 N4          6.3710   -0.2100    1.0850 n         1 MOL     -0.516847
     42 C14         6.4520   -1.0070   -0.1500 c3        1 MOL      0.147636
     43 C15         7.7330   -1.9200   -0.2200 c         1 MOL      0.486809
     44 O9          8.8780   -1.4490   -0.0710 o         1 MOL     -0.528488
     45 H17         7.1510   -0.3330    1.7140 hn        1 MOL      0.297791
     46 H18         6.3940   -0.3650   -1.0270 h1        1 MOL      0.040221
     47 H19         5.5510   -1.6020   -0.2740 h1        1 MOL      0.040221
     48 N5          7.6490   -3.2040   -0.4380 n         1 MOL     -0.437478
     49 C16         6.4530   -4.0530   -0.6520 c3        1 MOL      0.113684
     50 C17         5.8280   -3.7270   -2.0600 c         1 MOL      0.496231
     51 O10         6.6080   -3.3670   -2.9670 o         1 MOL     -0.511782
     52 C18         6.8840   -5.5260   -0.4680 c3        1 MOL     -0.453968
     53 C19         7.4570   -5.9630    0.8730 c         1 MOL      0.783021
     54 N6          7.1850   -7.2210    1.2320 n         1 MOL     -0.895783
     55 O11         7.9720   -5.2110    1.7040 o         1 MOL     -0.550230
     56 H20         8.5210   -3.6970   -0.5780 hn        1 MOL      0.304689
     57 H21         5.7890   -3.7860    0.1740 h1        1 MOL      0.081364
     58 H22         7.7070   -5.6620   -1.1660 hc        1 MOL      0.131542
     59 H23         6.0230   -6.1710   -0.6510 hc        1 MOL      0.131542
     60 H24         6.6700   -7.8250    0.6040 hn        1 MOL      0.388136
     61 H25         7.2330   -7.4910    2.2020 hn        1 MOL      0.388136
     62 N7          4.5380   -3.8160   -2.2520 n         1 MOL     -0.268155
     63 C20         3.9740   -3.5590   -3.5510 c3        1 MOL     -0.312401
     64 C21         2.5230   -4.1070   -3.6210 c         1 MOL      0.664301
     65 O12         2.2690   -4.8940   -4.4850 o         1 MOL     -0.563511
     66 H26         3.8840   -3.8570   -1.4870 hn        1 MOL      0.217546
     67 H27         4.5280   -3.9820   -4.3930 h1        1 MOL      0.154411
     68 H28         4.0190   -2.4720   -3.5460 h1        1 MOL      0.154411
     69 N8          1.6580   -3.6180   -2.7900 n         1 MOL     -0.526707
     70 C22         0.3370   -4.2090   -2.6370 c3        1 MOL      0.192685
     71 C23        -0.7190   -3.1340   -2.1460 c         1 MOL      0.378441
     72 O13        -0.3250   -2.0030   -1.7780 o         1 MOL     -0.525405
     73 C24         0.3840   -5.3870   -1.5830 c3        1 MOL      0.230039
     74 C25         0.9440   -6.6830   -2.0900 c3        1 MOL     -0.303879
     75 O14         1.1240   -4.9380   -0.3920 oh        1 MOL     -0.596195
     76 H29         1.9640   -3.0780   -1.9930 hn        1 MOL      0.326773
     77 H30        -0.0090   -4.7550   -3.5120 h1        1 MOL      0.061256
     78 H31        -0.6310   -5.6460   -1.3070 h1        1 MOL      0.036855
     79 H32         0.6410   -5.2780    0.3670 ho        1 MOL      0.404028
     80 H33         0.4650   -6.9050   -3.0450 hc        1 MOL      0.080298
     81 H34         2.0390   -6.7170   -2.1450 hc        1 MOL      0.080298
     82 H35         0.6850   -7.4820   -1.4070 hc        1 MOL      0.080298
     83 N9         -2.0420   -3.4480   -2.1270 n         1 MOL     -0.420409
     84 C26        -3.2060   -2.6430   -1.7570 c3        1 MOL     -0.068436
     85 C27        -3.8220   -3.2180   -0.4610 c         1 MOL      0.357200
     86 O15        -4.3870   -4.3080   -0.5130 o         1 MOL     -0.562362
     87 C28        -4.1880   -2.6230   -2.9850 c3        1 MOL      0.258827
     88 C29        -5.3690   -1.5940   -2.8020 c3        1 MOL      0.188788
     89 C30        -3.4150   -2.2860   -4.3110 c3        1 MOL     -0.484492
     90 C31        -6.5080   -1.6500   -3.7910 c3        1 MOL     -0.114834
     91 H36        -2.1860   -4.3530   -2.5630 hn        1 MOL      0.267872
     92 H37        -2.9720   -1.6290   -1.4440 h1        1 MOL      0.317869
     93 H38        -4.5790   -3.6240   -3.1600 hc        1 MOL     -0.024732
     94 H39        -4.9750   -0.5850   -2.7710 hc        1 MOL     -0.095236
     95 H40        -5.7370   -1.8440   -1.8070 hc        1 MOL     -0.095236
     96 H41        -2.8510   -3.1050   -4.7730 hc        1 MOL      0.110530
     97 H42        -4.0650   -1.7130   -4.9630 hc        1 MOL      0.110530
     98 H43        -2.6500   -1.5720   -4.0200 hc        1 MOL      0.110530
     99 H44        -6.2280   -1.3920   -4.8080 hc        1 MOL      0.019043
    100 H45        -6.9000   -2.6750   -3.7590 hc        1 MOL      0.019043
    101 H46        -7.3520   -0.9990   -3.6070 hc        1 MOL      0.019043
    102 N10        -3.9120   -2.4460    0.6030 n         1 MOL     -0.010065
    103 C32        -4.6840   -2.8110    1.8220 c3        1 MOL     -0.014650
    104 C33        -6.0180   -2.0680    1.8960 c         1 MOL      0.422330
    105 O16        -6.8830   -2.4260    2.6400 o         1 MOL     -0.520628
    106 C34        -3.8460   -2.3490    3.0030 c3        1 MOL      0.047164
    107 C35        -2.4600   -3.0950    2.9300 c         1 MOL      0.562480
    108 O17        -1.3860   -2.4440    2.8320 o         1 MOL     -0.669587
    109 O18        -2.4360   -4.3560    2.9750 o         1 MOL     -0.669587
    110 H47        -3.5730   -1.4960    0.5390 hn        1 MOL     -0.064285
    111 H48        -4.8480   -3.8910    1.8610 h1        1 MOL      0.096791
    112 H49        -4.4020   -2.6080    3.8970 hc        1 MOL     -0.005171
    113 H50        -3.6930   -1.2690    2.9980 hc        1 MOL     -0.005171
    114 N11        -6.1120   -0.9550    1.0980 n         1 MOL     -0.275220
    115 C36        -7.1700   -0.0250    0.9850 c3        1 MOL      0.187329
    116 C37        -6.6220    1.3860    0.6780 c         1 MOL      0.297738
    117 O19        -6.9180    1.9080   -0.4060 o         1 MOL     -0.433325
    118 C38        -8.2160   -0.6740   -0.0250 c3        1 MOL     -0.239724
    119 C39        -9.4340    0.1690   -0.2610 ca        1 MOL     -0.004720
    120 C40        -9.8680    0.3300   -1.5750 ca        1 MOL     -0.015155
    121 C41        -9.9980    0.9110    0.7760 ca        1 MOL     -0.015155
    122 C42       -10.9840    1.0760   -1.8350 ca        1 MOL     -0.221383
    123 C43       -11.1300    1.6550    0.5350 ca        1 MOL     -0.221383
    124 C44       -11.5910    1.8290   -0.7910 ca        1 MOL     -0.043863
    125 H51        -5.2650   -0.6460    0.6540 hn        1 MOL      0.188508
    126 H52        -7.5280    0.0550    2.0120 h1        1 MOL      0.020266
    127 H53        -8.4950   -1.6260    0.4200 hc        1 MOL      0.116768
    128 H54        -7.6390   -0.7890   -0.9470 hc        1 MOL      0.116768
    129 H55        -9.2960   -0.2230   -2.3020 ha        1 MOL      0.073373
    130 H56        -9.4720    0.9340    1.7190 ha        1 MOL      0.073373
    131 H57       -11.2500    1.1930   -2.8770 ha        1 MOL      0.119353
    132 H58       -11.7110    2.1500    1.2930 ha        1 MOL      0.119353
    133 H59       -12.4660    2.4440   -0.9180 ha        1 MOL      0.082239
    134 N12        -5.7660    2.0430    1.5600 n         1 MOL     -0.201196
    135 C45        -5.4160    3.4700    1.3540 c3        1 MOL      0.031579
    136 C46        -4.5430    3.8600    0.1080 c         1 MOL      0.353350
    137 O20        -4.4280    4.9840   -0.3170 o         1 MOL     -0.517573
    138 C47        -4.6690    3.8180    2.5910 c3        1 MOL     -0.124584
    139 C48        -4.0870    2.4930    3.1010 c3        1 MOL      0.039927
    140 C49        -5.1610    1.4780    2.6950 c3        1 MOL      0.152092
    141 H60        -6.2870    4.1090    1.2840 h1        1 MOL      0.066648
    142 H61        -3.8700    4.4760    2.2630 hc        1 MOL      0.043936
    143 H62        -5.2490    4.3850    3.3120 hc        1 MOL      0.043936
    144 H63        -3.1040    2.3190    2.6630 hc        1 MOL     -0.008793
    145 H64        -3.9390    2.5200    4.1830 hc        1 MOL     -0.008793
    146 H65        -4.7240    0.5200    2.4110 h1        1 MOL     -0.008698
    147 H66        -5.8660    1.4090    3.5250 h1        1 MOL     -0.008698
    148 N13        -4.0500    2.8190   -0.5930 n         1 MOL      0.014429
    149 C50        -3.2370    2.8430   -1.7740 c3        1 MOL     -0.270802
    150 C51        -3.8990    3.4520   -2.9960 c         1 MOL      0.525819
    151 O21        -3.1920    4.0360   -3.8060 o         1 MOL     -0.545563
    152 C52        -2.7140    1.4470   -2.0220 c3        1 MOL      0.047668
    153 C53        -1.7410    1.0060   -0.9280 c3        1 MOL     -0.190098
    154 C54        -2.4180    0.3640    0.2280 c         1 MOL      0.325212
    155 O22        -1.7910    0.0660    1.2540 o         1 MOL     -0.530794
    156 O23        -3.6500    0.1640    0.1530 o         1 MOL     -0.530794
    157 H67        -4.0070    1.9570   -0.0750 hn        1 MOL      0.244701
    158 H68        -2.4630    3.5870   -1.5470 h1        1 MOL      0.116341
    159 H69        -2.0580    1.4740   -2.8970 hc        1 MOL      0.014380
    160 H70        -3.5300    0.7700   -2.2530 hc        1 MOL      0.014380
    161 H71        -1.1240    1.8580   -0.6360 hc        1 MOL      0.087062
    162 H72        -1.0390    0.2930   -1.3620 hc        1 MOL      0.087062
    163 N14        -5.2440    3.3710   -3.0100 n         1 MOL     -0.177427
    164 C55        -6.0570    4.0380   -4.0870 c3        1 MOL     -0.219285
    165 H73        -5.5150    3.9910   -5.0310 h1        1 MOL      0.095328
    166 H74        -7.0130    3.5240   -4.1920 h1        1 MOL      0.095328
    167 H75        -6.2310    5.0800   -3.8190 h1        1 MOL      0.095328
    168 H76        -5.6400    2.9930   -2.1620 hn        1 MOL      0.154267
    169 Ca1         0.0600   -0.2910    2.9260 Ca        1 MOL      1.752426
    170 O24         1.7610    0.3410    0.9950 oh        1 MOL     -0.877764
    171 H77         2.6630    0.6200    1.0870 ho        1 MOL      0.426016
    172 H78         1.7610   -0.2250    0.2230 ho        1 MOL      0.426016
    173 O25         0.4010   -2.2720    0.9320 oh        1 MOL     -0.877764
    174 H79         0.0640   -1.9690    0.0860 ho        1 MOL      0.426016
    175 H80        -0.3510   -2.7070    1.3420 ho        1 MOL      0.426016
    176 O26        -0.2510    2.2180    2.6070 oh        1 MOL     -0.877764
    177 H81        -0.7170    2.6560    1.9040 ho        1 MOL      0.426016
    178 H82         0.2640    2.9050    3.0300 ho        1 MOL      0.426016
    179 O27         0.2870   -1.6410    5.2710 oh        1 MOL     -0.877764
    180 H83        -0.3130   -2.3310    5.5620 ho        1 MOL      0.426016
    181 H84         1.1190   -1.8640    5.6950 ho        1 MOL      0.426016
    182 O28        -1.8660    0.5290    4.5820 oh        1 MOL     -0.877764
    183 H85        -2.0170    0.3860    5.5170 ho        1 MOL      0.426016
    184 H86        -1.9200    1.4780    4.4730 ho        1 MOL      0.426016
@<TRIPOS>BOND
     1    1    2 1   
     2    1    4 1   
     3    1    5 1   
     4    1    6 1   
     5    2    3 2   
     6    2    7 1   
     7    7    8 1   
     8    7   15 1   
     9    8    9 1   
    10    8   11 1   
    11    8   16 1   
    12    9   10 2   
    13    9   19 1   
    14   11   12 1   
    15   11   17 1   
    16   11   18 1   
    17   12   13 1   
    18   12   14 1   
    19   19   20 1   
    20   19   24 1   
    21   20   21 1   
    22   20   23 1   
    23   20   25 1   
    24   21   22 2   
    25   21   29 1   
    26   23   26 1   
    27   23   27 1   
    28   23   28 1   
    29   29   30 1   
    30   29   37 1   
    31   30   31 1   
    32   30   33 1   
    33   30   38 1   
    34   31   32 2   
    35   31   41 1   
    36   33   34 1   
    37   33   39 1   
    38   33   40 1   
    39   34   35 1   
    40   34   36 1   
    41   41   42 1   
    42   41   45 1   
    43   42   43 1   
    44   42   46 1   
    45   42   47 1   
    46   43   44 2   
    47   43   48 1   
    48   48   49 1   
    49   48   56 1   
    50   49   50 1   
    51   49   52 1   
    52   49   57 1   
    53   50   51 2   
    54   50   62 1   
    55   52   53 1   
    56   52   58 1   
    57   52   59 1   
    58   53   54 1   
    59   53   55 2   
    60   54   60 1   
    61   54   61 1   
    62   62   63 1   
    63   62   66 1   
    64   63   64 1   
    65   63   67 1   
    66   63   68 1   
    67   64   65 2   
    68   64   69 1   
    69   69   70 1   
    70   69   76 1   
    71   70   71 1   
    72   70   73 1   
    73   70   77 1   
    74   71   72 2   
    75   71   83 1   
    76   73   74 1   
    77   73   75 1   
    78   73   78 1   
    79   74   80 1   
    80   74   81 1   
    81   74   82 1   
    82   75   79 1   
    83   83   84 1   
    84   83   91 1   
    85   84   85 1   
    86   84   87 1   
    87   84   92 1   
    88   85   86 2   
    89   85  102 1   
    90   87   88 1   
    91   87   89 1   
    92   87   93 1   
    93   88   90 1   
    94   88   94 1   
    95   88   95 1   
    96   89   96 1   
    97   89   97 1   
    98   89   98 1   
    99   90   99 1   
   100   90  100 1   
   101   90  101 1   
   102  102  103 1   
   103  102  110 1   
   104  103  104 1   
   105  103  106 1   
   106  103  111 1   
   107  104  105 2   
   108  104  114 1   
   109  106  107 1   
   110  106  112 1   
   111  106  113 1   
   112  107  108 1   
   113  107  109 1   
   114  114  115 1   
   115  114  125 1   
   116  115  116 1   
   117  115  118 1   
   118  115  126 1   
   119  116  117 2   
   120  116  134 1   
   121  118  119 1   
   122  118  127 1   
   123  118  128 1   
   124  119  120 ar  
   125  119  121 ar  
   126  120  122 ar  
   127  120  129 1   
   128  121  123 ar  
   129  121  130 1   
   130  122  124 ar  
   131  122  131 1   
   132  123  124 ar  
   133  123  132 1   
   134  124  133 1   
   135  134  135 1   
   136  134  140 1   
   137  135  136 1   
   138  135  138 1   
   139  135  141 1   
   140  136  137 2   
   141  136  148 1   
   142  138  139 1   
   143  138  142 1   
   144  138  143 1   
   145  139  140 1   
   146  139  144 1   
   147  139  145 1   
   148  140  146 1   
   149  140  147 1   
   150  148  149 1   
   151  148  157 1   
   152  149  150 1   
   153  149  152 1   
   154  149  158 1   
   155  150  151 2   
   156  150  163 1   
   157  152  153 1   
   158  152  159 1   
   159  152  160 1   
   160  153  154 1   
   161  153  161 1   
   162  153  162 1   
   163  154  155 1   
   164  154  156 1   
   165  163  164 1   
   166  163  168 1   
   167  164  165 1   
   168  164  166 1   
   169  164  167 1   
   170  170  171 1   
   171  170  172 1   
   172  173  174 1   
   173  173  175 1   
   174  176  177 1   
   175  176  178 1   
   176  179  180 1   
   177  179  181 1   
   178  182  183 1   
   179  182  184 1   
@<TRIPOS>SUBSTRUCTURE
     1 MOL         1 TEMP              0 ****  ****    0 ROOT
