@<TRIPOS>MOLECULE
MOL
  182   178     1     0     0
SMALL
resp


@<TRIPOS>ATOM
      1 C1          0.9790   -3.8780    5.9600 c3        1 MOL     -0.289677
      2 C2          1.4070   -3.7450    4.5320 c         1 MOL      0.746053
      3 O1          0.5920   -4.0970    3.6670 o         1 MOL     -0.609451
      4 H1          0.1840   -4.6190    6.0330 hc        1 MOL      0.078354
      5 H2          1.8280   -4.1970    6.5660 hc        1 MOL      0.078354
      6 H3          0.6150   -2.9160    6.3210 hc        1 MOL      0.078354
      7 N1          2.6280   -3.2720    4.2640 n         1 MOL     -0.596267
      8 C3          2.9540   -2.8230    2.9500 c3        1 MOL     -0.078217
      9 C4          3.3950   -3.9490    2.0200 c         1 MOL      0.636367
     10 O2          4.4300   -4.6250    2.1890 o         1 MOL     -0.555396
     11 C5          3.9260   -1.6020    2.9690 c3        1 MOL     -0.135725
     12 C6          4.0900   -0.9220    1.6680 c         1 MOL      0.623893
     13 O3          4.3700    0.2820    1.6190 o         1 MOL     -0.723439
     14 O4          3.6740   -1.4670    0.6450 o         1 MOL     -0.723439
     15 H4          3.3710   -3.3090    4.9390 hn        1 MOL      0.352464
     16 H5          2.0510   -2.4050    2.4950 h1        1 MOL      0.107325
     17 H6          4.9100   -1.9140    3.3030 hc        1 MOL      0.072410
     18 H7          3.5940   -0.9120    3.7410 hc        1 MOL      0.072410
     19 N2          2.6100   -4.2220    1.0050 n         1 MOL     -0.324021
     20 C7          2.8890   -5.2820   -0.0000 c3        1 MOL     -0.272419
     21 C8          4.0350   -4.9310   -1.0020 c         1 MOL      0.466852
     22 O5          4.8630   -5.7130   -1.4660 o         1 MOL     -0.554465
     23 C9          1.5690   -5.6920   -0.6170 c3        1 MOL      0.106521
     24 C10         1.6380   -6.9100   -1.5350 c3        1 MOL      0.129678
     25 C11         0.2310   -7.1290   -2.0470 c3        1 MOL     -0.019197
     26 C12         0.4180   -8.2040   -3.1280 c3        1 MOL     -0.021887
     27 N3         -0.8630   -8.3460   -3.9050 n4        1 MOL     -0.170713
     28 H8          1.9020   -3.5500    0.7390 hn        1 MOL      0.224901
     29 H9          3.3380   -6.0970    0.5710 h1        1 MOL      0.179310
     30 H10         1.2270   -4.7730   -1.1000 hc        1 MOL     -0.022059
     31 H11         0.7400   -5.8280    0.0760 hc        1 MOL     -0.022059
     32 H12         2.0650   -7.7680   -1.0200 hc        1 MOL     -0.010246
     33 H13         2.2860   -6.6800   -2.3810 hc        1 MOL     -0.010246
     34 H14        -0.1190   -6.1990   -2.5020 hc        1 MOL      0.025908
     35 H15        -0.3640   -7.4500   -1.1840 hc        1 MOL      0.025908
     36 H16         0.6640   -9.1140   -2.5870 hx        1 MOL      0.095183
     37 H17         1.2120   -7.9560   -3.8270 hx        1 MOL      0.095183
     38 H18        -0.9880   -7.4810   -4.4000 hn        1 MOL      0.215865
     39 H19        -0.8610   -9.1060   -4.5680 hn        1 MOL      0.215865
     40 H20        -1.7060   -8.4400   -3.3640 hn        1 MOL      0.215865
     41 N4          4.2210   -3.6530   -1.3340 n         1 MOL     -0.182963
     42 C13         5.1270   -3.1900   -2.3830 c3        1 MOL      0.095754
     43 C14         6.3450   -2.4280   -1.8020 c         1 MOL      0.366407
     44 O6          7.2990   -2.1180   -2.5180 o         1 MOL     -0.523502
     45 C15         4.4170   -2.3320   -3.4760 c3        1 MOL     -0.468880
     46 C16         4.0890   -0.8650   -3.1000 c         1 MOL      0.847568
     47 O7          4.2850   -0.5390   -1.9380 o         1 MOL     -0.748351
     48 O8          3.4660   -0.0920   -3.9050 o         1 MOL     -0.748351
     49 H21         3.6200   -2.9700   -0.8830 hn        1 MOL      0.193759
     50 H22         5.5630   -4.0760   -2.8500 h1        1 MOL      0.106986
     51 H23         3.4970   -2.8670   -3.7190 hc        1 MOL      0.109321
     52 H24         5.1280   -2.2320   -4.3000 hc        1 MOL      0.109321
     53 N5          6.2970   -2.0640   -0.4990 n         1 MOL     -0.126132
     54 C17         7.3580   -1.4990    0.2510 c3        1 MOL     -0.242943
     55 C18         7.6540   -0.0010    0.2400 c         1 MOL      0.493522
     56 O9          8.7090    0.4350    0.7300 o         1 MOL     -0.522542
     57 H25         5.4490   -2.3200   -0.0140 hn        1 MOL      0.183091
     58 H26         8.2930   -1.9660   -0.0350 h1        1 MOL      0.123057
     59 H27         7.2390   -1.8340    1.2770 h1        1 MOL      0.123057
     60 N6          6.8040    0.8530   -0.3890 n         1 MOL     -0.117282
     61 C19         6.9530    2.2740   -0.6300 c3        1 MOL     -0.255765
     62 C20         5.6090    2.9370   -0.5510 c         1 MOL      0.810735
     63 O10         4.5940    2.2490   -0.6940 o         1 MOL     -0.697402
     64 C21         7.6600    2.4810   -2.0220 c3        1 MOL     -0.122651
     65 C22         9.0520    1.8140   -2.1900 c         1 MOL      0.666624
     66 N7          9.0430    0.7500   -2.9420 n         1 MOL     -0.850994
     67 O11        10.0560    2.2540   -1.6320 o         1 MOL     -0.543528
     68 H28         6.0420    0.3430   -0.8300 hn        1 MOL      0.240401
     69 H29         7.6690    2.6770    0.0850 h1        1 MOL      0.112790
     70 H30         7.8770    3.5240   -2.2900 hc        1 MOL      0.019082
     71 H31         7.0540    2.1060   -2.8460 hc        1 MOL      0.019082
     72 H32         8.1470    0.5780   -3.3780 hn        1 MOL      0.409216
     73 H33         9.8600    0.1700   -3.0240 hn        1 MOL      0.409216
     74 N8          5.5670    4.2570   -0.3350 n         1 MOL     -0.499836
     75 C23         4.4450    5.1470   -0.3770 c3        1 MOL     -0.121780
     76 C24         3.4030    5.1090    0.7270 c         1 MOL      0.635719
     77 O12         3.7150    4.8600    1.8940 o         1 MOL     -0.494250
     78 H34         6.4300    4.7640   -0.2190 hn        1 MOL      0.344410
     79 H35         4.0120    5.1740   -1.3780 h1        1 MOL      0.086688
     80 H36         4.8920    6.1420   -0.3170 h1        1 MOL      0.086688
     81 N9          2.1370    5.2170    0.2960 n         1 MOL     -0.547124
     82 C25         0.9240    4.8590    1.0740 c3        1 MOL     -0.098653
     83 C26         0.8110    3.3630    1.5020 c         1 MOL      0.871979
     84 O13         1.4700    2.5350    0.8940 o         1 MOL     -0.652270
     85 C27        -0.3660    5.1390    0.2330 c3        1 MOL     -0.233862
     86 C28        -0.5470    6.4820   -0.3480 ca        1 MOL      0.205195
     87 C29        -0.6340    7.6220    0.4860 ca        1 MOL     -0.225495
     88 C30        -0.8230    6.6070   -1.7140 ca        1 MOL     -0.225495
     89 C31        -0.7930    8.9190   -0.0860 ca        1 MOL     -0.201403
     90 C32        -1.1000    7.8870   -2.2700 ca        1 MOL     -0.201403
     91 C33        -1.1200    9.0640   -1.4250 ca        1 MOL      0.272346
     92 O14        -1.0410   10.2670   -2.0570 oh        1 MOL     -0.466141
     93 H37         1.9950    5.1910   -0.7100 hn        1 MOL      0.285524
     94 H38         0.9320    5.5290    1.9330 h1        1 MOL      0.123628
     95 H39        -1.2920    4.8660    0.7310 hc        1 MOL      0.086864
     96 H40        -0.2520    4.4480   -0.6020 hc        1 MOL      0.086864
     97 H41        -0.4160    7.4750    1.5350 ha        1 MOL      0.143167
     98 H42        -0.6920    5.7450   -2.3600 ha        1 MOL      0.143167
     99 H43        -0.5890    9.7440    0.5880 ha        1 MOL      0.150776
    100 H44        -1.2720    8.0540   -3.3310 ha        1 MOL      0.150776
    101 H45        -0.7870   11.0080   -1.5020 ho        1 MOL      0.373124
    102 N10         0.0080    2.9850    2.4720 n         1 MOL     -0.831764
    103 C34        -0.1860    1.6520    3.1170 c3        1 MOL      0.382930
    104 C35        -0.1750    0.5070    2.0690 c         1 MOL      0.134986
    105 O15         0.8910    0.1330    1.5760 o         1 MOL     -0.450545
    106 C36         0.8360    1.3680    4.2760 c3        1 MOL      0.160036
    107 C37         0.6980   -0.1190    4.8680 c3        1 MOL     -0.225511
    108 C38         0.7800    2.4370    5.3840 c3        1 MOL     -0.180584
    109 C39        -0.6320   -0.4940    5.6060 c3        1 MOL     -0.240227
    110 H46        -0.6020    3.7180    2.8120 hn        1 MOL      0.352094
    111 H47        -1.1350    1.6640    3.6610 h1        1 MOL      0.020465
    112 H48         1.7900    1.4260    3.7320 hc        1 MOL      0.039200
    113 H49         1.5470   -0.3250    5.5260 hc        1 MOL      0.097636
    114 H50         0.8010   -0.8360    4.0570 hc        1 MOL      0.097636
    115 H51         0.7660    3.4550    5.0100 hc        1 MOL      0.045725
    116 H52        -0.1700    2.2850    5.8930 hc        1 MOL      0.045725
    117 H53         1.6820    2.2720    5.9760 hc        1 MOL      0.045725
    118 H54        -0.5370   -0.0650    6.6040 hc        1 MOL      0.072267
    119 H55        -1.5160   -0.0760    5.1380 hc        1 MOL      0.072267
    120 H56        -0.8490   -1.5600    5.7190 hc        1 MOL      0.072267
    121 N11        -1.3750    0.0860    1.6040 n         1 MOL     -0.086766
    122 C40        -1.7120   -1.0430    0.7940 c3        1 MOL     -0.123552
    123 C41        -3.1440   -1.0610    0.2670 c         1 MOL      0.610600
    124 O16        -3.5350   -2.1710   -0.1630 o         1 MOL     -0.570358
    125 C42        -1.2760   -2.3870    1.5350 c3        1 MOL      0.269990
    126 O17        -1.7670   -2.3980    2.9210 oh        1 MOL     -0.651500
    127 H57        -2.1430    0.5510    2.0800 hn        1 MOL      0.186033
    128 H58        -1.0230   -0.8330   -0.0240 h1        1 MOL      0.051858
    129 H59        -0.1820   -2.4440    1.5550 h1        1 MOL      0.023772
    130 H60        -1.6130   -3.2600    0.9910 h1        1 MOL      0.023772
    131 H61        -1.5570   -3.2110    3.3740 ho        1 MOL      0.421878
    132 N12        -3.9010    0.0180    0.2340 n         1 MOL     -0.510584
    133 C43        -5.3380   -0.0090   -0.2110 c3        1 MOL      0.274304
    134 C44        -5.4020    0.2090   -1.7340 c         1 MOL      0.536589
    135 O18        -4.4610    0.8500   -2.2830 o         1 MOL     -0.563529
    136 C45        -6.1660    0.9910    0.5390 c3        1 MOL     -0.258468
    137 H62        -3.5410    0.9040    0.5600 hn        1 MOL      0.250987
    138 H63        -5.7330   -0.9990   -0.0110 h1        1 MOL      0.068881
    139 H64        -5.8500    2.0280    0.4210 hc        1 MOL      0.078684
    140 H65        -7.2090    0.8770    0.2290 hc        1 MOL      0.078684
    141 H66        -6.0560    0.6530    1.5620 hc        1 MOL      0.078684
    142 N13        -6.3030   -0.4270   -2.4940 n         1 MOL     -0.705651
    143 C46        -7.5720   -0.8990   -2.0130 c3        1 MOL      0.584788
    144 C47        -8.7460   -0.1980   -2.6710 c         1 MOL      0.462227
    145 O19        -8.5420    0.4930   -3.5930 o         1 MOL     -0.542114
    146 C48        -7.5210   -2.3910   -2.2160 c3        1 MOL     -0.430650
    147 H67        -6.0430   -0.5590   -3.4670 hn        1 MOL      0.374966
    148 H68        -7.8130   -0.7070   -0.9710 h1        1 MOL     -0.089237
    149 H69        -6.6140   -2.7590   -1.7290 hc        1 MOL      0.105974
    150 H70        -8.3000   -2.9420   -1.6980 hc        1 MOL      0.105974
    151 H71        -7.5330   -2.5510   -3.3020 hc        1 MOL      0.105974
    152 N14        -9.9790   -0.2600   -2.1850 n         1 MOL     -0.550108
    153 C49       -10.4980   -0.6300   -0.8730 c3        1 MOL     -0.102014
    154 C50       -10.1190    0.3780    0.2240 c         1 MOL      0.510271
    155 O20        -9.7390   -0.0990    1.3160 o         1 MOL     -0.533529
    156 C51       -12.0130   -0.8450   -0.8490 c3        1 MOL      0.056233
    157 C52       -12.7820   -0.8530    0.4980 c3        1 MOL     -0.271674
    158 C53       -14.1920   -1.4400    0.3570 c         1 MOL      0.702113
    159 O21       -15.0860   -0.7120   -0.1440 o         1 MOL     -0.644390
    160 O22       -14.4570   -2.5980    0.8040 o         1 MOL     -0.644390
    161 H72       -10.6350    0.1940   -2.7950 hn        1 MOL      0.339967
    162 H73       -10.1700   -1.6210   -0.5650 h1        1 MOL      0.123972
    163 H74       -12.2100   -1.8380   -1.2690 hc        1 MOL      0.016137
    164 H75       -12.4360   -0.1980   -1.6090 hc        1 MOL      0.016137
    165 H76       -12.7710    0.1790    0.8460 hc        1 MOL      0.069492
    166 H77       -12.2440   -1.3910    1.2770 hc        1 MOL      0.069492
    167 N15       -10.0510    1.6560   -0.1330 n         1 MOL     -0.247511
    168 C54        -9.6430    2.6960    0.7370 c3        1 MOL     -0.252191
    169 H78        -8.8920    3.3090    0.2410 h1        1 MOL      0.107428
    170 H79       -10.5040    3.3130    0.9940 h1        1 MOL      0.107428
    171 H80        -9.2190    2.2660    1.6440 h1        1 MOL      0.107428
    172 H81       -10.5910    1.9610   -0.9250 hn        1 MOL      0.266525
    173 Ca1         2.5670    0.6210   -0.4200 Ca        1 MOL      1.835986
    174 O23         1.4020   -1.8110   -1.2980 oh        1 MOL     -0.826906
    175 H82         0.7040   -2.4490   -1.1540 ho        1 MOL      0.409062
    176 H83         1.3550   -1.5930   -2.2260 ho        1 MOL      0.409062
    177 O24         2.4090    2.3280   -2.6860 oh        1 MOL     -0.826906
    178 H84         3.0900    1.9590   -3.2440 ho        1 MOL      0.409062
    179 H85         2.5730    3.2690   -2.7150 ho        1 MOL      0.409062
    180 O25         0.0530    1.0280   -1.4710 oh        1 MOL     -0.826906
    181 H86         0.1820    1.0370   -2.4230 ho        1 MOL      0.409062
    182 H87        -0.7400    1.5370   -1.3350 ho        1 MOL      0.409062
@<TRIPOS>BOND
     1    1    2 1   
     2    1    4 1   
     3    1    5 1   
     4    1    6 1   
     5    2    3 2   
     6    2    7 1   
     7    7    8 1   
     8    7   15 1   
     9    8    9 1   
    10    8   11 1   
    11    8   16 1   
    12    9   10 2   
    13    9   19 1   
    14   11   12 1   
    15   11   17 1   
    16   11   18 1   
    17   12   13 1   
    18   12   14 1   
    19   19   20 1   
    20   19   28 1   
    21   20   21 1   
    22   20   23 1   
    23   20   29 1   
    24   21   22 2   
    25   21   41 1   
    26   23   24 1   
    27   23   30 1   
    28   23   31 1   
    29   24   25 1   
    30   24   32 1   
    31   24   33 1   
    32   25   26 1   
    33   25   34 1   
    34   25   35 1   
    35   26   27 1   
    36   26   36 1   
    37   26   37 1   
    38   27   38 1   
    39   27   39 1   
    40   27   40 1   
    41   41   42 1   
    42   41   49 1   
    43   42   43 1   
    44   42   45 1   
    45   42   50 1   
    46   43   44 2   
    47   43   53 1   
    48   45   46 1   
    49   45   51 1   
    50   45   52 1   
    51   46   47 1   
    52   46   48 1   
    53   53   54 1   
    54   53   57 1   
    55   54   55 1   
    56   54   58 1   
    57   54   59 1   
    58   55   56 2   
    59   55   60 1   
    60   60   61 1   
    61   60   68 1   
    62   61   62 1   
    63   61   64 1   
    64   61   69 1   
    65   62   63 2   
    66   62   74 1   
    67   64   65 1   
    68   64   70 1   
    69   64   71 1   
    70   65   66 1   
    71   65   67 2   
    72   66   72 1   
    73   66   73 1   
    74   74   75 1   
    75   74   78 1   
    76   75   76 1   
    77   75   79 1   
    78   75   80 1   
    79   76   77 2   
    80   76   81 1   
    81   81   82 1   
    82   81   93 1   
    83   82   83 1   
    84   82   85 1   
    85   82   94 1   
    86   83   84 2   
    87   83  102 1   
    88   85   86 1   
    89   85   95 1   
    90   85   96 1   
    91   86   87 ar  
    92   86   88 ar  
    93   87   89 ar  
    94   87   97 1   
    95   88   90 ar  
    96   88   98 1   
    97   89   91 ar  
    98   89   99 1   
    99   90   91 ar  
   100   90  100 1   
   101   91   92 1   
   102   92  101 1   
   103  102  103 1   
   104  102  110 1   
   105  103  104 1   
   106  103  106 1   
   107  103  111 1   
   108  104  105 2   
   109  104  121 1   
   110  106  107 1   
   111  106  108 1   
   112  106  112 1   
   113  107  109 1   
   114  107  113 1   
   115  107  114 1   
   116  108  115 1   
   117  108  116 1   
   118  108  117 1   
   119  109  118 1   
   120  109  119 1   
   121  109  120 1   
   122  121  122 1   
   123  121  127 1   
   124  122  123 1   
   125  122  125 1   
   126  122  128 1   
   127  123  124 2   
   128  123  132 1   
   129  125  126 1   
   130  125  129 1   
   131  125  130 1   
   132  126  131 1   
   133  132  133 1   
   134  132  137 1   
   135  133  134 1   
   136  133  136 1   
   137  133  138 1   
   138  134  135 2   
   139  134  142 1   
   140  136  139 1   
   141  136  140 1   
   142  136  141 1   
   143  142  143 1   
   144  142  147 1   
   145  143  144 1   
   146  143  146 1   
   147  143  148 1   
   148  144  145 2   
   149  144  152 1   
   150  146  149 1   
   151  146  150 1   
   152  146  151 1   
   153  152  153 1   
   154  152  161 1   
   155  153  154 1   
   156  153  156 1   
   157  153  162 1   
   158  154  155 2   
   159  154  167 1   
   160  156  157 1   
   161  156  163 1   
   162  156  164 1   
   163  157  158 1   
   164  157  165 1   
   165  157  166 1   
   166  158  159 1   
   167  158  160 1   
   168  167  168 1   
   169  167  172 1   
   170  168  169 1   
   171  168  170 1   
   172  168  171 1   
   173  174  175 1   
   174  174  176 1   
   175  177  178 1   
   176  177  179 1   
   177  180  181 1   
   178  180  182 1   
@<TRIPOS>SUBSTRUCTURE
     1 MOL         1 TEMP              0 ****  ****    0 ROOT
