@<TRIPOS>MOLECULE
MOL
  181   177     1     0     0
SMALL
resp


@<TRIPOS>ATOM
      1 C1          6.7150    1.4110    5.6940 c3        1 MOL     -0.345034
      2 C2          6.0860    1.3130    4.3060 c         1 MOL      0.738974
      3 O1          5.0030    1.8040    4.0230 o         1 MOL     -0.629508
      4 H1          7.1350    0.4440    5.9700 hc        1 MOL      0.082406
      5 H2          7.5050    2.1610    5.6840 hc        1 MOL      0.082406
      6 H3          5.9530    1.6960    6.4190 hc        1 MOL      0.082406
      7 N1          6.7240    0.7450    3.2860 n         1 MOL     -0.424251
      8 C3          8.1740    0.3960    3.2350 c3        1 MOL     -0.019104
      9 C4          8.2970   -1.0970    3.1290 c         1 MOL      0.495594
     10 O2          7.6510   -1.8260    3.8870 o         1 MOL     -0.518054
     11 C5          8.9670    1.2240    2.1920 c3        1 MOL     -0.085450
     12 C6          8.2760    1.2520    0.9040 c         1 MOL      0.560937
     13 O3          7.5610    2.2220    0.6930 o         1 MOL     -0.662701
     14 O4          8.5420    0.2750    0.1470 o         1 MOL     -0.662701
     15 H4          6.1860    0.5540    2.4510 hn        1 MOL      0.308880
     16 H5          8.7350    0.7000    4.1200 h1        1 MOL      0.075216
     17 H6          9.9840    0.8650    2.0900 hc        1 MOL      0.012962
     18 H7          9.0160    2.2070    2.6710 hc        1 MOL      0.012962
     19 N2          9.2110   -1.5610    2.3360 n         1 MOL     -0.527822
     20 C7          9.4250   -2.9530    1.9300 c3        1 MOL      0.300695
     21 C8          8.2810   -3.5240    1.0580 c         1 MOL      0.313433
     22 O5          8.2290   -4.7510    1.0610 o         1 MOL     -0.537190
     23 C9         10.0350   -3.8220    3.0910 c3        1 MOL     -0.346298
     24 H8          9.9300   -0.9530    1.9690 hn        1 MOL      0.322469
     25 H9         10.1960   -2.7980    1.1800 h1        1 MOL      0.000417
     26 H10        10.3560   -4.7340    2.5850 hc        1 MOL      0.096603
     27 H11        10.8980   -3.4230    3.6310 hc        1 MOL      0.096603
     28 H12         9.3310   -4.1820    3.8460 hc        1 MOL      0.096603
     29 N3          7.3350   -2.7340    0.5460 n         1 MOL      0.193654
     30 C10         6.2120   -3.1640   -0.2090 c3        1 MOL     -0.311693
     31 C11         6.1670   -2.6540   -1.7030 c         1 MOL      0.417078
     32 O6          6.5560   -1.5260   -1.9800 o         1 MOL     -0.456149
     33 C12         4.8960   -2.7570    0.5680 c3        1 MOL      0.110896
     34 C13         4.8740   -1.4740    1.2180 c         1 MOL      0.460652
     35 O7          4.1040   -1.3750    2.2440 o         1 MOL     -0.607586
     36 O8          5.4570   -0.4440    0.7670 o         1 MOL     -0.607586
     37 H13         7.5330   -1.7480    0.5180 hn        1 MOL     -0.062000
     38 H14         6.1650   -4.2460   -0.0790 h1        1 MOL      0.115178
     39 H15         4.7490   -3.6000    1.2400 hc        1 MOL      0.021547
     40 H16         3.9840   -2.8730   -0.0260 hc        1 MOL      0.021547
     41 N4          5.6350   -3.5070   -2.6550 n         1 MOL     -0.358554
     42 C14         5.2790   -3.0960   -3.9880 c3        1 MOL     -0.237157
     43 C15         4.1340   -2.1220   -4.0660 c         1 MOL      0.460468
     44 O9          3.8820   -1.3810   -5.0570 o         1 MOL     -0.530948
     45 H17         5.3170   -4.4110   -2.3170 hn        1 MOL      0.281994
     46 H18         5.0430   -3.9590   -4.6220 h1        1 MOL      0.147906
     47 H19         6.1690   -2.6340   -4.4010 h1        1 MOL      0.147906
     48 N5          3.3250   -2.1590   -2.9810 n         1 MOL     -0.278136
     49 C16         2.2710   -1.2820   -2.7300 c3        1 MOL     -0.054127
     50 C17         2.6990    0.1000   -2.1240 c         1 MOL      0.535550
     51 O10         3.8940    0.1060   -1.7100 o         1 MOL     -0.461013
     52 C18         1.2410   -2.0780   -1.8890 c3        1 MOL      0.006417
     53 C19         0.6040   -3.2860   -2.6100 c         1 MOL      0.543085
     54 N6         -0.0690   -4.1520   -1.9180 n         1 MOL     -0.774095
     55 O11         0.5340   -3.4070   -3.8980 o         1 MOL     -0.531960
     56 H20         3.4310   -2.8850   -2.2940 hn        1 MOL      0.264113
     57 H21         1.8040   -1.0100   -3.6750 h1        1 MOL      0.089429
     58 H22         0.4470   -1.4110   -1.5610 hc        1 MOL      0.008127
     59 H23         1.7530   -2.4620   -1.0000 hc        1 MOL      0.008127
     60 H24        -0.2030   -4.0870   -0.9210 hn        1 MOL      0.394148
     61 H25        -0.7670   -4.6350   -2.4620 hn        1 MOL      0.394148
     62 N7          1.8590    1.1650   -2.2270 n         1 MOL     -0.603439
     63 C20         2.3170    2.5610   -1.9270 c3        1 MOL      0.228966
     64 C21         1.6540    3.6510   -2.8070 c         1 MOL      0.652228
     65 O12         1.8010    3.6280   -4.0090 o         1 MOL     -0.582086
     66 H26         1.0100    0.9920   -2.7660 hn        1 MOL      0.343961
     67 H27         3.3600    2.6710   -2.2200 h1        1 MOL     -0.008088
     68 H28         2.2020    2.7760   -0.8610 h1        1 MOL     -0.008088
     69 N8          1.0380    4.6880   -2.2360 n         1 MOL     -0.630776
     70 C22         0.7240    4.9140   -0.8000 c3        1 MOL     -0.074953
     71 C23        -0.7220    4.4210   -0.4550 c         1 MOL      0.615528
     72 O13        -1.6740    4.7690   -1.1260 o         1 MOL     -0.513592
     73 C24         1.0040    6.4650   -0.5940 c3        1 MOL      0.371242
     74 C25         0.6860    6.8390    0.8910 c3        1 MOL     -0.421216
     75 O14         2.3350    6.7900   -0.7090 oh        1 MOL     -0.607519
     76 H29         0.6690    5.4040   -2.8420 hn        1 MOL      0.352652
     77 H30         1.3670    4.4000   -0.0760 h1        1 MOL      0.117770
     78 H31         0.3920    7.0570   -1.2790 h1        1 MOL      0.015074
     79 H32         2.3670    7.7430   -0.7840 ho        1 MOL      0.387487
     80 H33        -0.3280    6.5570    1.1710 hc        1 MOL      0.109989
     81 H34         1.4590    6.4230    1.5290 hc        1 MOL      0.109989
     82 H35         0.6580    7.9330    0.8530 hc        1 MOL      0.109989
     83 N9         -0.9180    3.7020    0.6530 n         1 MOL     -0.474772
     84 C26        -2.0850    2.9670    0.9150 c3        1 MOL     -0.131040
     85 C27        -2.9850    4.0680    1.5190 c         1 MOL      0.682808
     86 O15        -2.5690    4.8330    2.3910 o         1 MOL     -0.609211
     87 C28        -1.8510    1.7290    1.7760 c3        1 MOL      0.055220
     88 C29        -1.2170    0.6470    0.9050 c3        1 MOL      0.114943
     89 C30        -3.2480    1.2030    2.1790 c3        1 MOL     -0.247821
     90 C31        -0.6590   -0.5650    1.7400 c3        1 MOL     -0.222244
     91 H36        -0.1340    3.4790    1.2410 hn        1 MOL      0.265957
     92 H37        -2.5060    2.7360   -0.0680 h1        1 MOL      0.115883
     93 H38        -1.2700    1.8710    2.6870 hc        1 MOL      0.066847
     94 H39        -0.4090    1.0500    0.2920 hc        1 MOL     -0.010038
     95 H40        -1.9840    0.2290    0.2500 hc        1 MOL     -0.010038
     96 H41        -3.3150    0.2110    2.6260 hc        1 MOL      0.079168
     97 H42        -3.6910    1.9070    2.8780 hc        1 MOL      0.079168
     98 H43        -3.8200    0.9990    1.2720 hc        1 MOL      0.079168
     99 H44        -0.1350   -1.1990    1.0270 hc        1 MOL      0.043041
    100 H45         0.0190   -0.0930    2.4410 hc        1 MOL      0.043041
    101 H46        -1.4280   -1.0630    2.3210 hc        1 MOL      0.043041
    102 N10        -4.2140    4.3140    1.0120 n         1 MOL     -0.552160
    103 C32        -4.9090    3.7270   -0.1210 c3        1 MOL      0.485880
    104 C33        -6.0090    2.6810    0.3410 c         1 MOL      0.391384
    105 O16        -6.2400    2.4810    1.5610 o         1 MOL     -0.522460
    106 C34        -5.5510    4.8550   -0.9620 c3        1 MOL     -0.272294
    107 C35        -6.3950    5.9150   -0.2420 c         1 MOL      0.779184
    108 O17        -6.7730    6.9450   -0.8020 o         1 MOL     -0.728250
    109 O18        -6.6920    5.7380    0.9550 o         1 MOL     -0.728250
    110 H47        -4.7470    5.0770    1.4000 hn        1 MOL      0.302529
    111 H48        -4.2590    3.1700   -0.7950 h1        1 MOL     -0.074082
    112 H49        -6.1800    4.3650   -1.7130 hc        1 MOL      0.011193
    113 H50        -4.7230    5.3550   -1.4610 hc        1 MOL      0.011193
    114 N11        -6.6720    1.9730   -0.6370 n         1 MOL     -0.666360
    115 C36        -7.6070    0.8760   -0.2560 c3        1 MOL      0.542478
    116 C37        -8.0850    0.0070   -1.4150 c         1 MOL      0.132636
    117 O19        -8.3020    0.6000   -2.4860 o         1 MOL     -0.529025
    118 C38        -8.8950    1.5000    0.2410 c3        1 MOL     -0.293554
    119 C39        -9.7350    0.5120    1.0690 ca        1 MOL      0.068177
    120 C40       -10.6690   -0.3340    0.4460 ca        1 MOL     -0.152994
    121 C41        -9.5310    0.3830    2.4600 ca        1 MOL     -0.152994
    122 C42       -11.4180   -1.2690    1.1610 ca        1 MOL     -0.107239
    123 C43       -10.3190   -0.4930    3.2240 ca        1 MOL     -0.107239
    124 C44       -11.2890   -1.3310    2.5750 ca        1 MOL     -0.160802
    125 H51        -6.6560    2.2180   -1.6140 hn        1 MOL      0.352561
    126 H52        -7.1890    0.2470    0.5190 h1        1 MOL     -0.009838
    127 H53        -9.4790    1.8970   -0.5940 hc        1 MOL      0.114777
    128 H54        -8.5590    2.3450    0.8520 hc        1 MOL      0.114777
    129 H55       -10.8480   -0.3160   -0.6220 ha        1 MOL      0.126981
    130 H56        -8.8450    1.0670    2.9300 ha        1 MOL      0.126981
    131 H57       -12.2200   -1.8140    0.6910 ha        1 MOL      0.101127
    132 H58       -10.2180   -0.5200    4.3050 ha        1 MOL      0.101127
    133 H59       -11.9470   -1.9180    3.1860 ha        1 MOL      0.107173
    134 N12        -8.2440   -1.2930   -1.2990 n         1 MOL      0.162999
    135 C45        -7.8710   -2.1590   -0.1600 c3        1 MOL     -0.045439
    136 C46        -6.3250   -2.3410   -0.0360 c         1 MOL      0.522183
    137 O20        -5.6000   -1.5590   -0.5790 o         1 MOL     -0.568543
    138 C47        -8.6350   -3.4280   -0.5180 c3        1 MOL      0.166415
    139 C48        -8.8010   -3.5110   -1.9920 c3        1 MOL     -0.008070
    140 C49        -8.8990   -2.0180   -2.3390 c3        1 MOL      0.035816
    141 H60        -8.2560   -1.7550    0.7800 h1        1 MOL      0.009652
    142 H61        -8.1950   -4.3090   -0.0820 hc        1 MOL     -0.073135
    143 H62        -9.6150   -3.1990   -0.0840 hc        1 MOL     -0.073135
    144 H63        -7.9000   -3.9610   -2.3980 hc        1 MOL      0.011239
    145 H64        -9.6900   -4.0720   -2.2750 hc        1 MOL      0.011239
    146 H65        -8.4420   -1.8470   -3.3130 h1        1 MOL     -0.004857
    147 H66        -9.9520   -1.7750   -2.4320 h1        1 MOL     -0.004857
    148 N13        -5.8330   -3.3720    0.7020 n         1 MOL     -0.388822
    149 C50        -4.4010   -3.5870    0.8900 c3        1 MOL      0.065093
    150 C51        -3.9840   -4.3340    2.1950 c         1 MOL      0.454166
    151 O21        -3.0420   -5.1320    2.1660 o         1 MOL     -0.551033
    152 C52        -3.9740   -4.3630   -0.3210 c3        1 MOL     -0.152168
    153 C53        -4.3590   -5.8840   -0.4550 c3        1 MOL     -0.178776
    154 C54        -5.8070   -6.1740   -0.8910 c         1 MOL      0.794941
    155 O22        -6.6400   -6.4820    0.0060 o         1 MOL     -0.736669
    156 O23        -6.0140   -6.3350   -2.1120 o         1 MOL     -0.736669
    157 H67        -6.5150   -4.0300    1.0550 hn        1 MOL      0.269057
    158 H68        -3.9040   -2.6150    0.8340 h1        1 MOL      0.114573
    159 H69        -2.9090   -4.1880   -0.4610 hc        1 MOL      0.052241
    160 H70        -4.2460   -3.8880   -1.2670 hc        1 MOL      0.052241
    161 H71        -4.2560   -6.3840    0.5150 hc        1 MOL      0.024684
    162 H72        -3.7550   -6.3750   -1.2180 hc        1 MOL      0.024684
    163 N14        -4.4360   -4.0900    3.4640 n         1 MOL     -0.376232
    164 C55        -5.4670   -3.1000    3.9310 c3        1 MOL     -0.009968
    165 H73        -5.6140   -2.3400    3.1630 h1        1 MOL      0.041885
    166 H74        -6.4090   -3.6160    4.1160 h1        1 MOL      0.041885
    167 H75        -5.1250   -2.6250    4.8500 h1        1 MOL      0.041885
    168 H76        -4.1000   -4.7510    4.1520 hn        1 MOL      0.288604
    169 Ca1         6.3410    0.9060   -1.3940 Ca        1 MOL      1.716765
    170 O24         8.7580    1.3650   -2.6510 oh        1 MOL     -0.835238
    171 H77         8.9360    2.2530   -2.9580 ho        1 MOL      0.416725
    172 H78         9.4040    0.8150   -3.0850 ho        1 MOL      0.416725
    173 O25         4.6210    2.1840    0.4440 oh        1 MOL     -0.835238
    174 H79         4.4150    2.9140    1.0290 ho        1 MOL      0.416725
    175 H80         4.1420    1.4430    0.8170 ho        1 MOL      0.416725
    176 O26         5.9870    0.7980   -4.0760 oh        1 MOL     -0.835238
    177 H81         5.1230    1.0860   -4.4000 ho        1 MOL      0.416725
    178 H82         6.4260    0.4510   -4.8450 ho        1 MOL      0.416725
    179 O27         5.6630    3.4600   -2.2760 oh        1 MOL     -0.835238
    180 H83         5.9200    4.0140   -3.0140 ho        1 MOL      0.416725
    181 H84         5.1020    4.0240   -1.7410 ho        1 MOL      0.416725
@<TRIPOS>BOND
     1    1    2 1   
     2    1    4 1   
     3    1    5 1   
     4    1    6 1   
     5    2    3 2   
     6    2    7 1   
     7    7    8 1   
     8    7   15 1   
     9    8    9 1   
    10    8   11 1   
    11    8   16 1   
    12    9   10 2   
    13    9   19 1   
    14   11   12 1   
    15   11   17 1   
    16   11   18 1   
    17   12   13 1   
    18   12   14 1   
    19   19   20 1   
    20   19   24 1   
    21   20   21 1   
    22   20   23 1   
    23   20   25 1   
    24   21   22 2   
    25   21   29 1   
    26   23   26 1   
    27   23   27 1   
    28   23   28 1   
    29   29   30 1   
    30   29   37 1   
    31   30   31 1   
    32   30   33 1   
    33   30   38 1   
    34   31   32 2   
    35   31   41 1   
    36   33   34 1   
    37   33   39 1   
    38   33   40 1   
    39   34   35 1   
    40   34   36 1   
    41   41   42 1   
    42   41   45 1   
    43   42   43 1   
    44   42   46 1   
    45   42   47 1   
    46   43   44 2   
    47   43   48 1   
    48   48   49 1   
    49   48   56 1   
    50   49   50 1   
    51   49   52 1   
    52   49   57 1   
    53   50   51 2   
    54   50   62 1   
    55   52   53 1   
    56   52   58 1   
    57   52   59 1   
    58   53   54 1   
    59   53   55 2   
    60   54   60 1   
    61   54   61 1   
    62   62   63 1   
    63   62   66 1   
    64   63   64 1   
    65   63   67 1   
    66   63   68 1   
    67   64   65 2   
    68   64   69 1   
    69   69   70 1   
    70   69   76 1   
    71   70   71 1   
    72   70   73 1   
    73   70   77 1   
    74   71   72 2   
    75   71   83 1   
    76   73   74 1   
    77   73   75 1   
    78   73   78 1   
    79   74   80 1   
    80   74   81 1   
    81   74   82 1   
    82   75   79 1   
    83   83   84 1   
    84   83   91 1   
    85   84   85 1   
    86   84   87 1   
    87   84   92 1   
    88   85   86 2   
    89   85  102 1   
    90   87   88 1   
    91   87   89 1   
    92   87   93 1   
    93   88   90 1   
    94   88   94 1   
    95   88   95 1   
    96   89   96 1   
    97   89   97 1   
    98   89   98 1   
    99   90   99 1   
   100   90  100 1   
   101   90  101 1   
   102  102  103 1   
   103  102  110 1   
   104  103  104 1   
   105  103  106 1   
   106  103  111 1   
   107  104  105 2   
   108  104  114 1   
   109  106  107 1   
   110  106  112 1   
   111  106  113 1   
   112  107  108 1   
   113  107  109 1   
   114  114  115 1   
   115  114  125 1   
   116  115  116 1   
   117  115  118 1   
   118  115  126 1   
   119  116  117 2   
   120  116  134 1   
   121  118  119 1   
   122  118  127 1   
   123  118  128 1   
   124  119  120 ar  
   125  119  121 ar  
   126  120  122 ar  
   127  120  129 1   
   128  121  123 ar  
   129  121  130 1   
   130  122  124 ar  
   131  122  131 1   
   132  123  124 ar  
   133  123  132 1   
   134  124  133 1   
   135  134  135 1   
   136  134  140 1   
   137  135  136 1   
   138  135  138 1   
   139  135  141 1   
   140  136  137 2   
   141  136  148 1   
   142  138  139 1   
   143  138  142 1   
   144  138  143 1   
   145  139  140 1   
   146  139  144 1   
   147  139  145 1   
   148  140  146 1   
   149  140  147 1   
   150  148  149 1   
   151  148  157 1   
   152  149  150 1   
   153  149  152 1   
   154  149  158 1   
   155  150  151 2   
   156  150  163 1   
   157  152  153 1   
   158  152  159 1   
   159  152  160 1   
   160  153  154 1   
   161  153  161 1   
   162  153  162 1   
   163  154  155 1   
   164  154  156 1   
   165  163  164 1   
   166  163  168 1   
   167  164  165 1   
   168  164  166 1   
   169  164  167 1   
   170  170  171 1   
   171  170  172 1   
   172  173  174 1   
   173  173  175 1   
   174  176  177 1   
   175  176  178 1   
   176  179  180 1   
   177  179  181 1   
@<TRIPOS>SUBSTRUCTURE
     1 MOL         1 TEMP              0 ****  ****    0 ROOT
