@<TRIPOS>MOLECULE
MOL
  181   177     1     0     0
SMALL
resp


@<TRIPOS>ATOM
      1 C1          0.9810    6.3830   -1.8380 c3        1 MOL     -0.319438
      2 C2          2.3640    6.2870   -1.1370 c         1 MOL      0.661901
      3 O1          2.3930    6.6790    0.0750 o         1 MOL     -0.580853
      4 H1          0.7120    7.4310   -1.9690 hc        1 MOL      0.078287
      5 H2          1.0320    5.8980   -2.8130 hc        1 MOL      0.078287
      6 H3          0.2280    5.8880   -1.2250 hc        1 MOL      0.078287
      7 N1          3.4350    6.0180   -1.8930 n         1 MOL     -0.568660
      8 C3          4.7500    6.1250   -1.3880 c3        1 MOL      0.353915
      9 C4          5.1030    5.0380   -0.4160 c         1 MOL      0.497550
     10 O2          5.7890    4.0510   -0.7660 o         1 MOL     -0.489432
     11 C5          5.6560    6.1890   -2.6270 c3        1 MOL     -0.288337
     12 C6          7.1280    6.4000   -2.2770 c         1 MOL      0.762939
     13 O3          7.4630    7.3610   -1.5470 o         1 MOL     -0.741922
     14 O4          7.9330    5.6160   -2.7800 o         1 MOL     -0.741922
     15 H4          3.3940    5.9320   -2.9040 hn        1 MOL      0.309462
     16 H5          4.9620    7.0450   -0.8430 h1        1 MOL     -0.047853
     17 H6          5.2800    7.0460   -3.1830 hc        1 MOL      0.017580
     18 H7          5.4540    5.2390   -3.1200 hc        1 MOL      0.017580
     19 N2          4.6040    5.1770    0.8180 n         1 MOL     -0.679249
     20 C7          4.7830    4.2780    1.9650 c3        1 MOL      0.551780
     21 C8          3.4970    3.3280    2.0220 c         1 MOL      0.271748
     22 O5          2.3740    3.7020    1.6690 o         1 MOL     -0.505856
     23 C9          4.8930    5.1430    3.2750 c3        1 MOL     -0.303324
     24 H8          3.7790    5.7460    0.9710 hn        1 MOL      0.345507
     25 H9          5.6630    3.6440    1.8210 h1        1 MOL     -0.025995
     26 H10         4.6860    4.5950    4.1920 hc        1 MOL      0.066375
     27 H11         5.9400    5.4070    3.4290 hc        1 MOL      0.066375
     28 H12         4.2780    6.0310    3.1530 hc        1 MOL      0.066375
     29 N3          3.5320    2.1740    2.6440 n         1 MOL     -0.241159
     30 C10         4.6910    1.3680    3.1140 c3        1 MOL     -0.227056
     31 C11         5.2750    0.4990    1.9820 c         1 MOL      0.632859
     32 O6          4.8410    0.5600    0.8270 o         1 MOL     -0.462089
     33 C12         4.1280    0.4560    4.2790 c3        1 MOL     -0.117124
     34 C13         3.0320   -0.4250    3.7330 c         1 MOL      0.831366
     35 O7          2.0570   -0.0590    3.0360 o         1 MOL     -0.799380
     36 O8          3.1540   -1.6640    3.9040 o         1 MOL     -0.799380
     37 H13         2.6440    1.8190    2.9560 hn        1 MOL      0.250635
     38 H14         5.4270    1.9640    3.6640 h1        1 MOL      0.096966
     39 H15         3.7050    1.0690    5.0760 hc        1 MOL      0.049496
     40 H16         4.8440   -0.1840    4.7900 hc        1 MOL      0.049496
     41 N4          6.2500   -0.3620    2.3300 n         1 MOL     -0.626175
     42 C14         6.6670   -1.4350    1.4450 c3        1 MOL      0.311938
     43 C15         7.6790   -0.9580    0.3890 c         1 MOL      0.369403
     44 O9          8.3190    0.0940    0.4290 o         1 MOL     -0.456829
     45 H17         6.6570   -0.3430    3.2580 hn        1 MOL      0.334786
     46 H18         5.7670   -1.8800    1.0120 h1        1 MOL     -0.008032
     47 H19         7.1430   -2.2960    1.9220 h1        1 MOL     -0.008032
     48 N5          7.8840   -1.7860   -0.6610 n         1 MOL     -0.422764
     49 C16         7.1260   -2.9770   -1.0550 c3        1 MOL      0.041692
     50 C17         5.8460   -2.6500   -1.8500 c         1 MOL      0.617168
     51 O10         5.6920   -1.4770   -2.2050 o         1 MOL     -0.489754
     52 C18         8.0210   -3.8050   -1.9580 c3        1 MOL     -0.265017
     53 C19         9.3340   -4.2000   -1.3390 c         1 MOL      0.675971
     54 N6         10.2990   -4.7210   -2.0500 n         1 MOL     -0.782995
     55 O11         9.6040   -3.9690   -0.1720 o         1 MOL     -0.525692
     56 H20         8.5970   -1.4830   -1.3160 hn        1 MOL      0.332345
     57 H21         6.8500   -3.5560   -0.1660 h1        1 MOL      0.021480
     58 H22         8.2620   -3.1520   -2.8040 hc        1 MOL      0.066043
     59 H23         7.5950   -4.6940   -2.4200 hc        1 MOL      0.066043
     60 H24         9.9910   -5.1930   -2.8920 hn        1 MOL      0.354468
     61 H25        11.2270   -4.8550   -1.6780 hn        1 MOL      0.354468
     62 N7          4.9740   -3.6530   -2.0120 n         1 MOL     -0.421316
     63 C20         3.7900   -3.6320   -2.9470 c3        1 MOL     -0.248450
     64 C21         2.7310   -4.6280   -2.4880 c         1 MOL      0.665114
     65 O12         2.4330   -5.5250   -3.3160 o         1 MOL     -0.572854
     66 H26         5.1410   -4.6040   -1.7120 hn        1 MOL      0.277491
     67 H27         4.1760   -3.7760   -3.9640 h1        1 MOL      0.142461
     68 H28         3.2760   -2.6700   -2.8570 h1        1 MOL      0.142461
     69 N8          2.0440   -4.4410   -1.3590 n         1 MOL     -0.461306
     70 C22         0.7780   -5.1710   -1.0940 c3        1 MOL     -0.107336
     71 C23        -0.3940   -4.2190   -0.7530 c         1 MOL      0.697609
     72 O13        -0.0880   -3.1100   -0.2320 o         1 MOL     -0.589675
     73 C24         0.9400   -6.2860   -0.0040 c3        1 MOL      0.515057
     74 C25         1.6540   -7.5450   -0.4630 c3        1 MOL     -0.528286
     75 O14         1.5960   -5.8770    1.2060 oh        1 MOL     -0.705246
     76 H29         2.1900   -3.6340   -0.7790 hn        1 MOL      0.240692
     77 H30         0.4740   -5.7690   -1.9520 h1        1 MOL      0.081862
     78 H31        -0.0870   -6.4990    0.2970 h1        1 MOL     -0.031966
     79 H32         1.3470   -6.4200    1.9570 ho        1 MOL      0.431641
     80 H33         2.7110   -7.3420   -0.6090 hc        1 MOL      0.134886
     81 H34         1.4800   -8.3960    0.2040 hc        1 MOL      0.134886
     82 H35         1.2960   -7.8710   -1.4470 hc        1 MOL      0.134886
     83 N9         -1.6620   -4.5670   -0.9630 n         1 MOL     -0.434379
     84 C26        -2.8210   -3.6380   -0.8020 c3        1 MOL     -0.201333
     85 C27        -3.4420   -3.8590    0.5680 c         1 MOL      0.471505
     86 O15        -3.6160   -4.8900    1.2000 o         1 MOL     -0.538884
     87 C28        -3.7990   -3.9460   -1.9440 c3        1 MOL      0.267593
     88 C29        -4.9560   -2.9190   -1.9870 c3        1 MOL      0.098257
     89 C30        -3.2290   -4.0340   -3.4030 c3        1 MOL     -0.448613
     90 C31        -6.1670   -3.3640   -2.8120 c3        1 MOL     -0.193312
     91 H36        -1.8630   -5.4280   -1.4480 hn        1 MOL      0.275563
     92 H37        -2.5980   -2.5840   -0.9550 h1        1 MOL      0.190486
     93 H38        -4.2210   -4.9310   -1.7380 hc        1 MOL     -0.013467
     94 H39        -4.4980   -1.9530   -2.1990 hc        1 MOL     -0.027062
     95 H40        -5.4370   -2.8140   -1.0120 hc        1 MOL     -0.027062
     96 H41        -2.4780   -4.8290   -3.4880 hc        1 MOL      0.105128
     97 H42        -4.0840   -4.0750   -4.0730 hc        1 MOL      0.105128
     98 H43        -2.7170   -3.0970   -3.6170 hc        1 MOL      0.105128
     99 H44        -6.9360   -2.5960   -2.7080 hc        1 MOL      0.040764
    100 H45        -5.9280   -3.2810   -3.8730 hc        1 MOL      0.040764
    101 H46        -6.5300   -4.3590   -2.5780 hc        1 MOL      0.040764
    102 N10        -3.8630   -2.7050    1.1480 n         1 MOL     -0.218470
    103 C32        -4.5070   -2.4920    2.4730 c3        1 MOL      0.100302
    104 C33        -5.5390   -1.3490    2.3920 c         1 MOL      0.494498
    105 O16        -6.3750   -1.2790    3.3140 o         1 MOL     -0.554953
    106 C34        -3.4860   -2.4580    3.6490 c3        1 MOL     -0.053937
    107 C35        -2.3080   -1.4630    3.3150 c         1 MOL      0.754686
    108 O17        -2.4480   -0.2940    3.7380 o         1 MOL     -0.744431
    109 O18        -1.3410   -1.8290    2.6800 o         1 MOL     -0.744431
    110 H47        -3.6890   -1.8910    0.5830 hn        1 MOL      0.127181
    111 H48        -5.1400   -3.3540    2.7000 h1        1 MOL      0.040350
    112 H49        -3.0130   -3.4370    3.6950 hc        1 MOL      0.004427
    113 H50        -4.0040   -2.2410    4.5860 hc        1 MOL      0.004427
    114 N11        -5.5000   -0.5030    1.3650 n         1 MOL     -0.690874
    115 C36        -6.6630    0.3860    1.1540 c3        1 MOL      0.544618
    116 C37        -6.2880    1.7590    0.6580 c         1 MOL      0.239131
    117 O19        -6.7660    2.2680   -0.3440 o         1 MOL     -0.531303
    118 C38        -7.5760   -0.3140    0.1720 c3        1 MOL     -0.195318
    119 C39        -9.1120    0.1100    0.0980 ca        1 MOL      0.010541
    120 C40        -9.9330   -0.5820   -0.8620 ca        1 MOL     -0.114868
    121 C41        -9.6630    1.1670    0.9070 ca        1 MOL     -0.114868
    122 C42       -11.3080   -0.2790   -0.9120 ca        1 MOL     -0.114947
    123 C43       -11.0660    1.4530    0.8240 ca        1 MOL     -0.114947
    124 C44       -11.8150    0.7320   -0.1070 ca        1 MOL     -0.134350
    125 H51        -4.6540   -0.4560    0.8140 hn        1 MOL      0.366135
    126 H52        -7.1870    0.4250    2.1050 h1        1 MOL     -0.011824
    127 H53        -7.6180   -1.3370    0.5380 hc        1 MOL      0.075977
    128 H54        -7.1330   -0.3870   -0.8190 hc        1 MOL      0.075977
    129 H55        -9.5000   -1.3320   -1.5230 ha        1 MOL      0.105127
    130 H56        -9.0870    1.6350    1.6920 ha        1 MOL      0.105127
    131 H57       -11.9580   -0.9310   -1.4690 ha        1 MOL      0.103507
    132 H58       -11.5050    2.0880    1.5770 ha        1 MOL      0.103507
    133 H59       -12.8690    0.9670   -0.1750 ha        1 MOL      0.089220
    134 N12        -5.2900    2.4790    1.1150 n         1 MOL     -0.069576
    135 C45        -4.8390    3.7900    0.5700 c3        1 MOL     -0.048924
    136 C46        -4.3890    3.7550   -0.8950 c         1 MOL      0.303678
    137 O20        -4.2990    4.7870   -1.5680 o         1 MOL     -0.495996
    138 C47        -3.6570    4.1680    1.5040 c3        1 MOL     -0.004024
    139 C48        -4.0050    3.4850    2.8310 c3        1 MOL     -0.222723
    140 C49        -4.6060    2.1580    2.3500 c3        1 MOL     -0.080388
    141 H60        -5.6400    4.5170    0.7420 h1        1 MOL      0.087138
    142 H61        -2.8420    3.6040    1.0380 hc        1 MOL      0.055231
    143 H62        -3.4870    5.2450    1.4850 hc        1 MOL      0.055231
    144 H63        -3.0910    3.3380    3.4140 hc        1 MOL      0.084599
    145 H64        -4.7280    4.0400    3.4210 hc        1 MOL      0.084599
    146 H65        -3.7970    1.4470    2.2490 h1        1 MOL      0.104982
    147 H66        -5.2570    1.7710    3.1360 h1        1 MOL      0.104982
    148 N13        -4.1550    2.5270   -1.4050 n         1 MOL      0.142481
    149 C50        -3.7980    2.2420   -2.7540 c3        1 MOL     -0.293103
    150 C51        -4.9730    2.4180   -3.7330 c         1 MOL      0.505902
    151 O21        -4.7910    3.1730   -4.6590 o         1 MOL     -0.528829
    152 C52        -3.2560    0.8380   -2.9490 c3        1 MOL      0.192283
    153 C53        -2.0060    0.4100   -2.0840 c3        1 MOL     -0.173895
    154 C54        -2.3530    0.0750   -0.6560 c         1 MOL      0.501086
    155 O22        -1.4730    0.1280    0.2090 o         1 MOL     -0.668073
    156 O23        -3.5200   -0.2100   -0.3610 o         1 MOL     -0.668073
    157 H67        -4.4820    1.7720   -0.8300 hn        1 MOL      0.183431
    158 H68        -2.9650    2.8860   -3.0410 h1        1 MOL      0.116608
    159 H69        -2.9240    0.7800   -3.9840 hc        1 MOL     -0.036101
    160 H70        -3.9730    0.0350   -2.7940 hc        1 MOL     -0.036101
    161 H71        -1.2060    1.1520   -2.0860 hc        1 MOL      0.056645
    162 H72        -1.7110   -0.5100   -2.5760 hc        1 MOL      0.056645
    163 N14        -6.1330    1.8460   -3.4490 n         1 MOL     -0.238315
    164 C55        -7.3600    2.2490   -4.0070 c3        1 MOL     -0.289113
    165 H73        -7.5110    3.3120   -3.8220 h1        1 MOL      0.113678
    166 H74        -7.3490    2.0660   -5.0820 h1        1 MOL      0.113678
    167 H75        -8.1720    1.6840   -3.5510 h1        1 MOL      0.113678
    168 H76        -6.0840    1.2560   -2.6400 hn        1 MOL      0.230223
    169 Ca1         0.5510   -1.0250    1.2610 Ca        1 MOL      1.732869
    170 O24         1.2870   -3.4650    2.3090 oh        1 MOL     -0.839185
    171 H77         1.5560   -4.3090    1.9640 ho        1 MOL      0.414909
    172 H78         1.8790   -3.2990    3.0450 ho        1 MOL      0.414909
    173 O25         1.9930    1.0000   -0.0270 oh        1 MOL     -0.839185
    174 H79         2.8340    1.0350   -0.4970 ho        1 MOL      0.414909
    175 H80         2.1020    1.6050    0.7060 ho        1 MOL      0.414909
    176 O26         3.0010   -1.7780    0.1580 oh        1 MOL     -0.839185
    177 H81         3.6640   -1.1070    0.0510 ho        1 MOL      0.414909
    178 H82         3.4680   -2.5400    0.5100 ho        1 MOL      0.414909
    179 O27        -0.7710    1.2820    2.3210 oh        1 MOL     -0.839185
    180 H83        -1.0760    1.0600    1.4420 ho        1 MOL      0.414909
    181 H84        -1.3450    0.7950    2.9080 ho        1 MOL      0.414909
@<TRIPOS>BOND
     1    1    2 1   
     2    1    4 1   
     3    1    5 1   
     4    1    6 1   
     5    2    3 2   
     6    2    7 1   
     7    7    8 1   
     8    7   15 1   
     9    8    9 1   
    10    8   11 1   
    11    8   16 1   
    12    9   10 2   
    13    9   19 1   
    14   11   12 1   
    15   11   17 1   
    16   11   18 1   
    17   12   13 1   
    18   12   14 1   
    19   19   20 1   
    20   19   24 1   
    21   20   21 1   
    22   20   23 1   
    23   20   25 1   
    24   21   22 2   
    25   21   29 1   
    26   23   26 1   
    27   23   27 1   
    28   23   28 1   
    29   29   30 1   
    30   29   37 1   
    31   30   31 1   
    32   30   33 1   
    33   30   38 1   
    34   31   32 2   
    35   31   41 1   
    36   33   34 1   
    37   33   39 1   
    38   33   40 1   
    39   34   35 1   
    40   34   36 1   
    41   41   42 1   
    42   41   45 1   
    43   42   43 1   
    44   42   46 1   
    45   42   47 1   
    46   43   44 2   
    47   43   48 1   
    48   48   49 1   
    49   48   56 1   
    50   49   50 1   
    51   49   52 1   
    52   49   57 1   
    53   50   51 2   
    54   50   62 1   
    55   52   53 1   
    56   52   58 1   
    57   52   59 1   
    58   53   54 1   
    59   53   55 2   
    60   54   60 1   
    61   54   61 1   
    62   62   63 1   
    63   62   66 1   
    64   63   64 1   
    65   63   67 1   
    66   63   68 1   
    67   64   65 2   
    68   64   69 1   
    69   69   70 1   
    70   69   76 1   
    71   70   71 1   
    72   70   73 1   
    73   70   77 1   
    74   71   72 2   
    75   71   83 1   
    76   73   74 1   
    77   73   75 1   
    78   73   78 1   
    79   74   80 1   
    80   74   81 1   
    81   74   82 1   
    82   75   79 1   
    83   83   84 1   
    84   83   91 1   
    85   84   85 1   
    86   84   87 1   
    87   84   92 1   
    88   85   86 2   
    89   85  102 1   
    90   87   88 1   
    91   87   89 1   
    92   87   93 1   
    93   88   90 1   
    94   88   94 1   
    95   88   95 1   
    96   89   96 1   
    97   89   97 1   
    98   89   98 1   
    99   90   99 1   
   100   90  100 1   
   101   90  101 1   
   102  102  103 1   
   103  102  110 1   
   104  103  104 1   
   105  103  106 1   
   106  103  111 1   
   107  104  105 2   
   108  104  114 1   
   109  106  107 1   
   110  106  112 1   
   111  106  113 1   
   112  107  108 1   
   113  107  109 1   
   114  114  115 1   
   115  114  125 1   
   116  115  116 1   
   117  115  118 1   
   118  115  126 1   
   119  116  117 2   
   120  116  134 1   
   121  118  119 1   
   122  118  127 1   
   123  118  128 1   
   124  119  120 ar  
   125  119  121 ar  
   126  120  122 ar  
   127  120  129 1   
   128  121  123 ar  
   129  121  130 1   
   130  122  124 ar  
   131  122  131 1   
   132  123  124 ar  
   133  123  132 1   
   134  124  133 1   
   135  134  135 1   
   136  134  140 1   
   137  135  136 1   
   138  135  138 1   
   139  135  141 1   
   140  136  137 2   
   141  136  148 1   
   142  138  139 1   
   143  138  142 1   
   144  138  143 1   
   145  139  140 1   
   146  139  144 1   
   147  139  145 1   
   148  140  146 1   
   149  140  147 1   
   150  148  149 1   
   151  148  157 1   
   152  149  150 1   
   153  149  152 1   
   154  149  158 1   
   155  150  151 2   
   156  150  163 1   
   157  152  153 1   
   158  152  159 1   
   159  152  160 1   
   160  153  154 1   
   161  153  161 1   
   162  153  162 1   
   163  154  155 1   
   164  154  156 1   
   165  163  164 1   
   166  163  168 1   
   167  164  165 1   
   168  164  166 1   
   169  164  167 1   
   170  170  171 1   
   171  170  172 1   
   172  173  174 1   
   173  173  175 1   
   174  176  177 1   
   175  176  178 1   
   176  179  180 1   
   177  179  181 1   
@<TRIPOS>SUBSTRUCTURE
     1 MOL         1 TEMP              0 ****  ****    0 ROOT
