@<TRIPOS>MOLECULE
MOL
  192   187     1     0     0
SMALL
resp


@<TRIPOS>ATOM
      1 C1         -5.2130   -4.0870    5.2070 c3        1 MOL     -0.274579
      2 C2         -4.6700   -3.3930    3.8870 c         1 MOL      0.707632
      3 O1         -3.9110   -4.0260    3.1380 o         1 MOL     -0.619365
      4 H1         -5.2050   -5.1690    5.0780 hc        1 MOL      0.069417
      5 H2         -4.5750   -3.8170    6.0490 hc        1 MOL      0.069417
      6 H3         -6.2320   -3.7520    5.4010 hc        1 MOL      0.069417
      7 N1         -4.9040   -2.1500    3.6980 n         1 MOL     -0.525797
      8 C3         -4.7150   -1.3790    2.4360 c3        1 MOL      0.457073
      9 C4         -3.2280   -1.1200    2.0600 c         1 MOL     -0.216650
     10 O2         -3.0340   -0.3480    1.0960 o         1 MOL     -0.126502
     11 C5         -5.4560   -0.0610    2.5280 c3        1 MOL      0.074252
     12 C6         -6.8420   -0.0480    3.1500 c         1 MOL      0.616841
     13 O3         -7.7630    0.5260    2.4990 o         1 MOL     -0.660521
     14 O4         -7.0960   -0.6010    4.2550 o         1 MOL     -0.660521
     15 H4         -5.5610   -1.7420    4.3540 hn        1 MOL      0.197092
     16 H5         -5.1220   -2.0010    1.6370 h1        1 MOL      0.015941
     17 H6         -5.5540    0.3160    1.5160 hc        1 MOL     -0.104053
     18 H7         -4.8930    0.7150    3.0580 hc        1 MOL     -0.104053
     19 N2         -2.2860   -1.7100    2.7940 n         1 MOL      0.047829
     20 C7         -0.8790   -1.4170    2.6850 c3        1 MOL      0.041092
     21 C8         -0.1120   -2.5770    1.8870 c         1 MOL      0.311841
     22 O5         -0.4710   -3.7530    2.0980 o         1 MOL     -0.467100
     23 C9         -0.3820   -1.1870    4.1590 c3        1 MOL     -0.327054
     24 C10        -0.7480    0.2210    4.8430 c3        1 MOL     -0.013745
     25 C11        -2.1160    0.7880    4.4800 c3        1 MOL      0.277448
     26 C12        -2.3080    2.0700    5.3440 c3        1 MOL     -0.016882
     27 N3         -3.7550    2.5050    5.2960 n4        1 MOL     -0.350143
     28 H8         -2.5540   -2.4130    3.4740 hn        1 MOL      0.190720
     29 H9         -0.7560   -0.4550    2.1890 h1        1 MOL      0.130077
     30 H10         0.6940   -1.3520    4.1210 hc        1 MOL      0.105695
     31 H11        -0.8920   -1.9180    4.7930 hc        1 MOL      0.105695
     32 H12         0.0520    0.8960    4.5090 hc        1 MOL      0.025315
     33 H13        -0.7030    0.1420    5.9270 hc        1 MOL      0.025315
     34 H14        -2.8260    0.0510    4.8680 hc        1 MOL     -0.073367
     35 H15        -2.2440    0.9770    3.4190 hc        1 MOL     -0.073367
     36 H16        -1.6930    2.8900    4.9730 hx        1 MOL      0.066076
     37 H17        -2.0190    1.8190    6.3620 hx        1 MOL      0.066076
     38 H18        -4.0500    2.6460    4.3400 hn        1 MOL      0.314735
     39 H19        -4.3180    1.7770    5.7080 hn        1 MOL      0.314735
     40 H20        -3.8590    3.3640    5.8260 hn        1 MOL      0.314735
     41 N4          0.8330   -2.3480    0.9860 n         1 MOL      0.021784
     42 C13         1.2960   -1.0730    0.4070 c3        1 MOL     -0.565538
     43 C14         1.7130   -0.0120    1.4740 c         1 MOL      0.824078
     44 O6          1.1370    1.0940    1.4950 o         1 MOL     -0.637990
     45 C15         0.3770   -0.3430   -0.6730 c3        1 MOL     -0.179686
     46 C16        -0.0650   -1.3200   -1.7200 c         1 MOL      0.588886
     47 O7          0.7150   -2.2700   -2.1140 o         1 MOL     -0.629102
     48 O8         -1.0700   -1.0690   -2.4050 o         1 MOL     -0.629102
     49 H21         0.9620   -3.1310    0.3630 hn        1 MOL      0.070096
     50 H22         2.2250   -1.3210   -0.0940 h1        1 MOL      0.119338
     51 H23         0.9190    0.4580   -1.1760 hc        1 MOL      0.188478
     52 H24        -0.5470   -0.0100   -0.2180 hc        1 MOL      0.188478
     53 N5          2.7660   -0.2700    2.2500 n         1 MOL     -0.396093
     54 C17         3.7560   -1.3710    2.0290 c3        1 MOL      0.034111
     55 C18         5.0170   -1.1430    2.9140 c         1 MOL      0.531294
     56 O9          4.9890   -0.3720    3.9140 o         1 MOL     -0.526290
     57 H25         3.0070    0.4120    2.9480 hn        1 MOL      0.247311
     58 H26         3.9430   -1.4630    0.9600 h1        1 MOL      0.039972
     59 H27         3.2710   -2.3220    2.2250 h1        1 MOL      0.039972
     60 N6          6.1660   -1.8910    2.7440 n         1 MOL     -0.414111
     61 C19         6.3320   -2.8930    1.6560 c3        1 MOL     -0.088523
     62 C20         7.1120   -2.3390    0.4010 c         1 MOL      0.342087
     63 O10         8.0690   -1.5510    0.5220 o         1 MOL     -0.398617
     64 C21         7.1630   -4.0590    2.2400 c3        1 MOL     -0.082471
     65 C22         8.5220   -3.7660    2.8230 c         1 MOL      0.732476
     66 O11         9.5210   -4.3880    2.3120 o         1 MOL     -0.634411
     67 O12         8.6940   -3.0700    3.8110 o         1 MOL     -0.634411
     68 H28         6.9110   -1.9270    3.4260 hn        1 MOL      0.307824
     69 H29         5.3500   -3.2940    1.3850 h1        1 MOL      0.076902
     70 H30         7.1980   -4.8950    1.5380 hc        1 MOL      0.006349
     71 H31         6.6520   -4.4610    3.1090 hc        1 MOL      0.006349
     72 N7          6.6380   -2.6790   -0.8090 n         1 MOL     -0.053444
     73 C23         7.2000   -2.2890   -2.0460 c3        1 MOL     -0.319261
     74 C24         6.9800   -0.8400   -2.2910 c         1 MOL      0.541366
     75 O13         7.9450   -0.1670   -2.6470 o         1 MOL     -0.498268
     76 H32         5.8560   -3.3220   -0.8760 hn        1 MOL      0.128237
     77 H33         6.7070   -2.7880   -2.8790 h1        1 MOL      0.128132
     78 H34         8.2640   -2.5370   -2.0320 h1        1 MOL      0.128132
     79 N8          5.7760   -0.3050   -1.8910 n         1 MOL     -0.397609
     80 C25         5.3510    1.0320   -2.1800 c3        1 MOL     -0.036441
     81 C26         4.7370    1.5100   -0.8850 c         1 MOL      0.601204
     82 O14         4.2350    0.7950   -0.0820 o         1 MOL     -0.554101
     83 C27         4.2480    1.0040   -3.2880 c3        1 MOL      0.202469
     84 C28         4.1930    2.2990   -4.0480 c3        1 MOL     -0.118144
     85 O15         2.9670    0.7800   -2.8210 oh        1 MOL     -0.470667
     86 H35         5.0480   -0.9500   -1.6340 hn        1 MOL      0.249561
     87 H36         6.2100    1.6760   -2.3860 h1        1 MOL      0.088983
     88 H37         4.5410    0.1780   -3.9430 h1        1 MOL      0.035264
     89 H38         2.9700   -0.0290   -2.3100 ho        1 MOL      0.276570
     90 H39         4.2410    3.1630   -3.3860 hc        1 MOL      0.035645
     91 H40         5.0490    2.3080   -4.7190 hc        1 MOL      0.035645
     92 H41         3.3370    2.3830   -4.7210 hc        1 MOL      0.035645
     93 N9          4.7880    2.7960   -0.5480 n         1 MOL     -0.402296
     94 C29         4.0210    3.4090    0.6330 c3        1 MOL     -0.029893
     95 C30         2.6160    3.9500    0.3090 c         1 MOL      0.294521
     96 O16         2.0590    4.5240    1.2380 o         1 MOL     -0.513668
     97 C31         4.9240    4.3300    1.5640 c3        1 MOL      0.113237
     98 C32         5.3180    5.6520    0.7960 c3        1 MOL      0.124123
     99 C33         6.2160    3.5740    1.8790 c3        1 MOL     -0.174889
    100 C34         6.2410    6.5650    1.6160 c3        1 MOL     -0.304351
    101 H42         5.3000    3.3540   -1.2070 hn        1 MOL      0.263596
    102 H43         3.8630    2.5800    1.3140 h1        1 MOL      0.149053
    103 H44         4.3360    4.5010    2.4600 hc        1 MOL      0.031378
    104 H45         4.3860    6.0840    0.4250 hc        1 MOL     -0.023118
    105 H46         5.7710    5.3130   -0.1320 hc        1 MOL     -0.023118
    106 H47         6.1110    2.5300    2.1960 hc        1 MOL      0.050487
    107 H48         6.7810    3.5660    0.9420 hc        1 MOL      0.050487
    108 H49         6.7030    4.0740    2.7190 hc        1 MOL      0.050487
    109 H50         5.7690    6.7730    2.5730 hc        1 MOL      0.076308
    110 H51         7.2690    6.1850    1.6460 hc        1 MOL      0.076308
    111 H52         6.1850    7.5600    1.1790 hc        1 MOL      0.076308
    112 N10         2.0610    3.8760   -0.9380 n         1 MOL      0.068689
    113 C35         1.0770    4.8220   -1.3700 c3        1 MOL     -0.063130
    114 C36        -0.3410    4.4640   -0.8750 c         1 MOL      0.311992
    115 O17        -1.2620    5.2530   -1.1720 o         1 MOL     -0.556967
    116 C37         1.1240    4.9690   -2.9150 c3        1 MOL      0.268166
    117 C38         0.5230    3.7730   -3.6980 c3        1 MOL     -0.313710
    118 O18         2.4420    5.0260   -3.4590 oh        1 MOL     -0.647724
    119 H53         2.5450    3.3680   -1.6520 hn        1 MOL      0.060319
    120 H54         1.4050    5.8140   -1.0550 h1        1 MOL      0.110514
    121 H55         0.6820    5.9450   -3.0900 h1        1 MOL      0.030270
    122 H56         2.2710    5.2490   -4.3800 ho        1 MOL      0.407982
    123 H57         1.1990    2.9180   -3.6880 hc        1 MOL      0.092138
    124 H58        -0.3330    3.3310   -3.1850 hc        1 MOL      0.092138
    125 H59         0.1770    4.1200   -4.6840 hc        1 MOL      0.092138
    126 N11        -0.4400    3.3630   -0.1360 n         1 MOL      0.009022
    127 C39        -1.6730    2.7790    0.3550 c3        1 MOL      0.031962
    128 C40        -2.6830    2.4340   -0.7650 c         1 MOL      0.346776
    129 O19        -2.3720    2.5900   -1.9500 o         1 MOL     -0.507583
    130 C41        -2.3160    3.7730    1.3130 c3        1 MOL      0.321393
    131 C42        -1.4770    4.3630    2.4180 c3        1 MOL     -0.238790
    132 O20        -3.2600    3.0300    2.0150 oh        1 MOL     -0.481388
    133 H60         0.3710    2.7850   -0.2500 hn        1 MOL      0.042639
    134 H61        -1.4420    1.8470    0.8710 h1        1 MOL      0.039306
    135 H62        -2.7410    4.5950    0.7240 h1        1 MOL      0.014337
    136 H63        -3.6670    3.7850    2.4490 ho        1 MOL      0.304165
    137 H64        -1.0460    3.5440    2.9860 hc        1 MOL      0.055079
    138 H65        -0.6050    4.8690    1.9980 hc        1 MOL      0.055079
    139 H66        -2.0610    5.0630    3.0140 hc        1 MOL      0.055079
    140 N12        -3.8590    1.9160   -0.4420 n         1 MOL     -0.205612
    141 C43        -5.0180    1.6260   -1.3540 c3        1 MOL     -0.049221
    142 C44        -5.2460    0.1780   -1.8220 c         1 MOL      0.637103
    143 O21        -5.9800   -0.1100   -2.7320 o         1 MOL     -0.632373
    144 C45        -6.3150    2.3710   -0.9670 c3        1 MOL      0.177778
    145 C46        -6.2950    3.8860   -0.6990 c3        1 MOL     -0.068185
    146 C47        -5.7400    4.6850   -1.8570 c3        1 MOL      0.046344
    147 C48        -6.3410    4.4990   -3.2140 c3        1 MOL      0.182714
    148 N13        -5.9380    5.5070   -4.2000 n4        1 MOL     -0.490891
    149 H67        -3.8820    1.6030    0.5180 hn        1 MOL      0.129600
    150 H68        -4.7750    2.0670   -2.3250 h1        1 MOL      0.048900
    151 H69        -6.7090    1.9510   -0.0420 hc        1 MOL     -0.018006
    152 H70        -6.9960    2.1430   -1.7930 hc        1 MOL     -0.018006
    153 H71        -5.7200    4.1960    0.1730 hc        1 MOL      0.012014
    154 H72        -7.3480    4.1620   -0.6570 hc        1 MOL      0.012014
    155 H73        -4.6630    4.5430   -1.8470 hc        1 MOL     -0.001428
    156 H74        -5.9520    5.7150   -1.5510 hc        1 MOL     -0.001428
    157 H75        -7.4310    4.4830   -3.1870 hx        1 MOL      0.036138
    158 H76        -6.0570    3.4920   -3.5180 hx        1 MOL      0.036138
    159 H77        -5.0430    5.2240   -4.5700 hn        1 MOL      0.356560
    160 H78        -6.6200    5.4170   -4.9440 hn        1 MOL      0.356560
    161 H79        -5.9080    6.4850   -3.9400 hn        1 MOL      0.356560
    162 N14        -4.4990   -0.7630   -1.2830 n         1 MOL     -0.065206
    163 C49        -4.5350   -2.2050   -1.5480 c3        1 MOL     -0.419922
    164 C50        -5.9150   -2.8710   -1.3660 c         1 MOL      0.472367
    165 O22        -6.5170   -2.7720   -0.3040 o         1 MOL     -0.501329
    166 C51        -3.4550   -2.9410   -0.7240 c3        1 MOL      0.706609
    167 C52        -3.2250   -4.4330   -1.0420 c3        1 MOL     -0.486177
    168 C53        -3.0670   -4.8220   -2.4900 c         1 MOL      0.593097
    169 O23        -4.0530   -5.0090   -3.1910 o         1 MOL     -0.673927
    170 O24        -1.9510   -4.7350   -3.0180 o         1 MOL     -0.673927
    171 H80        -4.0560   -0.4700   -0.4230 hn        1 MOL     -0.100656
    172 H81        -4.2870   -2.3040   -2.6070 h1        1 MOL      0.162003
    173 H82        -3.6790   -2.8970    0.3360 hc        1 MOL     -0.121733
    174 H83        -2.5030   -2.4270   -0.8760 hc        1 MOL     -0.121733
    175 H84        -4.0370   -5.0210   -0.6150 hc        1 MOL      0.106438
    176 H85        -2.3250   -4.7170   -0.5110 hc        1 MOL      0.106438
    177 N15        -6.3370   -3.5560   -2.4110 n         1 MOL     -0.211732
    178 C54        -7.5960   -4.2610   -2.5130 c3        1 MOL     -0.119188
    179 H86        -7.4690   -5.2840   -2.1580 h1        1 MOL      0.069556
    180 H87        -8.3460   -3.7560   -1.9040 h1        1 MOL      0.069556
    181 H88        -7.9220   -4.2760   -3.5530 h1        1 MOL      0.069556
    182 H89        -5.6960   -3.6200   -3.1910 hn        1 MOL      0.306129
    183 Ca1         0.5800   -4.4710   -3.2500 Ca        1 MOL      1.489107
    184 O25         2.7150   -3.5740   -4.6360 oh        1 MOL     -0.761562
    185 H90         2.7030   -3.7260   -5.5850 ho        1 MOL      0.375352
    186 H91         3.5230   -4.0020   -4.3380 ho        1 MOL      0.375352
    187 O26        -0.6940   -2.4820   -4.6560 oh        1 MOL     -0.761562
    188 H92        -0.8170   -2.0600   -3.8110 ho        1 MOL      0.375352
    189 H93        -1.5860   -2.6460   -4.9770 ho        1 MOL      0.375352
    190 O27         0.6230   -5.2470   -5.7990 oh        1 MOL     -0.761562
    191 H94         0.7030   -6.1840   -6.0040 ho        1 MOL      0.375352
    192 H95         1.2770   -4.8260   -6.3660 ho        1 MOL      0.375352
@<TRIPOS>BOND
     1    1    2 1   
     2    1    4 1   
     3    1    5 1   
     4    1    6 1   
     5    2    3 2   
     6    2    7 1   
     7    7    8 1   
     8    7   15 1   
     9    8    9 1   
    10    8   11 1   
    11    8   16 1   
    12    9   10 2   
    13    9   19 1   
    14   11   12 1   
    15   11   17 1   
    16   11   18 1   
    17   12   13 1   
    18   12   14 1   
    19   19   20 1   
    20   19   28 1   
    21   20   21 1   
    22   20   23 1   
    23   20   29 1   
    24   21   22 2   
    25   21   41 1   
    26   23   24 1   
    27   23   30 1   
    28   23   31 1   
    29   24   25 1   
    30   24   32 1   
    31   24   33 1   
    32   25   26 1   
    33   25   34 1   
    34   25   35 1   
    35   26   27 1   
    36   26   36 1   
    37   26   37 1   
    38   27   38 1   
    39   27   39 1   
    40   27   40 1   
    41   41   42 1   
    42   41   49 1   
    43   42   43 1   
    44   42   45 1   
    45   42   50 1   
    46   43   44 2   
    47   43   53 1   
    48   45   46 1   
    49   45   51 1   
    50   45   52 1   
    51   46   47 1   
    52   46   48 1   
    53   53   54 1   
    54   53   57 1   
    55   54   55 1   
    56   54   58 1   
    57   54   59 1   
    58   55   56 2   
    59   55   60 1   
    60   60   61 1   
    61   60   68 1   
    62   61   62 1   
    63   61   64 1   
    64   61   69 1   
    65   62   63 2   
    66   62   72 1   
    67   64   65 1   
    68   64   70 1   
    69   64   71 1   
    70   65   66 1   
    71   65   67 1   
    72   72   73 1   
    73   72   76 1   
    74   73   74 1   
    75   73   77 1   
    76   73   78 1   
    77   74   75 2   
    78   74   79 1   
    79   79   80 1   
    80   79   86 1   
    81   80   81 1   
    82   80   83 1   
    83   80   87 1   
    84   81   82 2   
    85   81   93 1   
    86   83   84 1   
    87   83   85 1   
    88   83   88 1   
    89   84   90 1   
    90   84   91 1   
    91   84   92 1   
    92   85   89 1   
    93   93   94 1   
    94   93  101 1   
    95   94   95 1   
    96   94   97 1   
    97   94  102 1   
    98   95   96 2   
    99   95  112 1   
   100   97   98 1   
   101   97   99 1   
   102   97  103 1   
   103   98  100 1   
   104   98  104 1   
   105   98  105 1   
   106   99  106 1   
   107   99  107 1   
   108   99  108 1   
   109  100  109 1   
   110  100  110 1   
   111  100  111 1   
   112  112  113 1   
   113  112  119 1   
   114  113  114 1   
   115  113  116 1   
   116  113  120 1   
   117  114  115 2   
   118  114  126 1   
   119  116  117 1   
   120  116  118 1   
   121  116  121 1   
   122  117  123 1   
   123  117  124 1   
   124  117  125 1   
   125  118  122 1   
   126  126  127 1   
   127  126  133 1   
   128  127  128 1   
   129  127  130 1   
   130  127  134 1   
   131  128  129 2   
   132  128  140 1   
   133  130  131 1   
   134  130  132 1   
   135  130  135 1   
   136  131  137 1   
   137  131  138 1   
   138  131  139 1   
   139  132  136 1   
   140  140  141 1   
   141  140  149 1   
   142  141  142 1   
   143  141  144 1   
   144  141  150 1   
   145  142  143 2   
   146  142  162 1   
   147  144  145 1   
   148  144  151 1   
   149  144  152 1   
   150  145  146 1   
   151  145  153 1   
   152  145  154 1   
   153  146  147 1   
   154  146  155 1   
   155  146  156 1   
   156  147  148 1   
   157  147  157 1   
   158  147  158 1   
   159  148  159 1   
   160  148  160 1   
   161  148  161 1   
   162  162  163 1   
   163  162  171 1   
   164  163  164 1   
   165  163  166 1   
   166  163  172 1   
   167  164  165 2   
   168  164  177 1   
   169  166  167 1   
   170  166  173 1   
   171  166  174 1   
   172  167  168 1   
   173  167  175 1   
   174  167  176 1   
   175  168  169 1   
   176  168  170 1   
   177  177  178 1   
   178  177  182 1   
   179  178  179 1   
   180  178  180 1   
   181  178  181 1   
   182  184  185 1   
   183  184  186 1   
   184  187  188 1   
   185  187  189 1   
   186  190  191 1   
   187  190  192 1   
@<TRIPOS>SUBSTRUCTURE
     1 MOL         1 TEMP              0 ****  ****    0 ROOT
