@<TRIPOS>MOLECULE
MOL
  178   175     1     0     0
SMALL
resp


@<TRIPOS>ATOM
      1 C1          2.3590   -1.3240    5.0660 c3        1 MOL     -0.351332
      2 C2          3.4840   -1.0080    4.0990 c         1 MOL      0.707559
      3 O1          3.2500   -0.1840    3.1970 o         1 MOL     -0.577061
      4 H1          2.7340   -1.2730    6.0880 hc        1 MOL      0.082258
      5 H2          1.5550   -0.6000    4.9390 hc        1 MOL      0.082258
      6 H3          1.9800   -2.3270    4.8680 hc        1 MOL      0.082258
      7 N1          4.6670   -1.6060    4.3580 n         1 MOL     -0.478150
      8 C3          5.9840   -1.3960    3.7060 c3        1 MOL     -0.038034
      9 C4          6.1580   -2.2040    2.4090 c         1 MOL      0.614250
     10 O2          7.1110   -1.9500    1.7230 o         1 MOL     -0.523280
     11 C5          7.2050   -1.6140    4.6280 c3        1 MOL     -0.109331
     12 C6          8.5720   -0.9000    4.3090 c         1 MOL      0.713486
     13 O3          8.4500    0.3060    4.2160 o         1 MOL     -0.711615
     14 O4          9.5920   -1.5430    4.3310 o         1 MOL     -0.711615
     15 H4          4.6740   -2.3030    5.0940 hn        1 MOL      0.255250
     16 H5          6.0310   -0.3180    3.4970 h1        1 MOL      0.086824
     17 H6          7.3900   -2.6870    4.6530 hc        1 MOL     -0.006351
     18 H7          6.9410   -1.4600    5.6700 hc        1 MOL     -0.006351
     19 N2          5.2390   -3.0320    1.9960 n         1 MOL     -0.451985
     20 C7          5.1420   -3.7990    0.7220 c3        1 MOL      0.132055
     21 C8          4.8810   -2.9540   -0.4980 c         1 MOL      0.724021
     22 O5          3.7460   -2.8900   -1.0360 o         1 MOL     -0.735474
     23 C9          6.2310   -4.8910    0.6920 c3        1 MOL     -0.351719
     24 H8          4.3380   -3.0080    2.4470 hn        1 MOL      0.235058
     25 H9          4.2360   -4.3670    0.9260 h1        1 MOL      0.071147
     26 H10         6.2370   -5.5210    1.5850 hc        1 MOL      0.091098
     27 H11         6.1300   -5.4540   -0.2350 hc        1 MOL      0.091098
     28 H12         7.1540   -4.3360    0.5640 hc        1 MOL      0.091098
     29 N3          5.8990   -2.2240   -0.9210 n         1 MOL     -0.422489
     30 C10         5.9040   -1.3840   -2.1260 c3        1 MOL      0.030525
     31 C11         5.7580    0.1580   -1.7440 c         1 MOL      0.590776
     32 O6          5.9940    1.1060   -2.5300 o         1 MOL     -0.488695
     33 C12         7.2530   -1.5660   -2.8320 c3        1 MOL     -0.280259
     34 C13         7.2450   -1.1680   -4.2530 c         1 MOL      0.768601
     35 O7          6.3080   -1.5080   -4.9910 o         1 MOL     -0.736841
     36 O8          8.1910   -0.5840   -4.7490 o         1 MOL     -0.736841
     37 H13         6.6910   -2.0090   -0.3400 hn        1 MOL      0.252784
     38 H14         5.1190   -1.7250   -2.8020 h1        1 MOL      0.045316
     39 H15         7.5100   -2.6200   -2.8380 hc        1 MOL      0.063838
     40 H16         7.9970   -0.9900   -2.2690 hc        1 MOL      0.063838
     41 N4          5.5550    0.4380   -0.4090 n         1 MOL     -0.261190
     42 C14         5.7020    1.7960    0.2080 c3        1 MOL     -0.188704
     43 C15         4.8140    2.7940   -0.5750 c         1 MOL      0.648339
     44 O9          5.2420    3.9080   -0.8560 o         1 MOL     -0.564967
     45 H17         5.2100   -0.2950    0.2040 hn        1 MOL      0.185288
     46 H18         6.7290    2.1160    0.3830 h1        1 MOL      0.112867
     47 H19         5.2150    1.7880    1.1900 h1        1 MOL      0.112867
     48 N5          3.5870    2.3750   -0.8930 n         1 MOL     -0.444843
     49 C16         2.6800    2.9870   -1.8310 c3        1 MOL     -0.074480
     50 C17         1.9770    4.1450   -1.1810 c         1 MOL      0.546952
     51 O10         1.7540    4.1900    0.0380 o         1 MOL     -0.508306
     52 C18         1.6340    1.9040   -2.1800 c3        1 MOL     -0.242336
     53 C19         2.2490    0.7690   -3.0770 c         1 MOL      0.569721
     54 N6          2.7240    1.0680   -4.2990 n         1 MOL     -0.678045
     55 O11         2.4480   -0.3790   -2.6460 o         1 MOL     -0.615545
     56 H20         3.3500    1.4700   -0.5220 hn        1 MOL      0.298162
     57 H21         3.1800    3.3590   -2.7270 h1        1 MOL      0.108623
     58 H22         0.7390    2.2970   -2.6470 hc        1 MOL      0.127725
     59 H23         1.2850    1.4530   -1.2510 hc        1 MOL      0.127725
     60 H24         2.4030    1.8760   -4.7990 hn        1 MOL      0.341412
     61 H25         3.1750    0.3130   -4.8070 hn        1 MOL      0.341412
     62 N7          1.6850    5.2480   -1.9630 n         1 MOL     -0.425384
     63 C20         1.3130    6.5480   -1.3570 c3        1 MOL      0.028821
     64 C21        -0.1100    6.8630   -1.4910 c         1 MOL      0.431057
     65 O12        -0.7780    6.5430   -2.4920 o         1 MOL     -0.471541
     66 H26         1.8380    5.1640   -2.9540 hn        1 MOL      0.277335
     67 H27         2.0280    7.2400   -1.7910 h1        1 MOL      0.074076
     68 H28         1.4320    6.4920   -0.2830 h1        1 MOL      0.074076
     69 N8         -0.6410    7.7000   -0.5200 n         1 MOL     -0.256431
     70 C22        -2.0050    8.0950   -0.3050 c3        1 MOL     -0.445461
     71 C23        -2.8870    6.8470   -0.0270 c         1 MOL      0.564789
     72 O13        -4.1370    6.9960    0.0610 o         1 MOL     -0.571536
     73 C24        -2.1770    9.3010    0.6590 c3        1 MOL      0.462836
     74 C25        -1.6260    8.9850    2.0210 c3        1 MOL     -0.294733
     75 O14        -1.3910   10.4220    0.2380 oh        1 MOL     -0.648038
     76 H29         0.0090    8.2070    0.0680 hn        1 MOL      0.180025
     77 H30        -2.3400    8.6120   -1.1960 h1        1 MOL      0.185391
     78 H31        -3.2090    9.6480    0.7070 h1        1 MOL      0.069196
     79 H32        -0.4710   10.2030    0.0500 ho        1 MOL      0.400183
     80 H33        -0.5760    8.6810    2.0180 hc        1 MOL      0.070039
     81 H34        -1.6700    9.9120    2.5890 hc        1 MOL      0.070039
     82 H35        -2.1720    8.2340    2.5960 hc        1 MOL      0.070039
     83 N9         -2.2430    5.6750    0.1400 n         1 MOL     -0.184444
     84 C26        -2.8880    4.3660    0.5590 c3        1 MOL     -0.112529
     85 C27        -2.3940    3.1550   -0.2680 c         1 MOL      0.513800
     86 O15        -1.5320    3.2450   -1.1360 o         1 MOL     -0.477058
     87 C28        -2.6800    4.2140    2.0870 c3        1 MOL      0.152060
     88 C29        -1.2090    4.2080    2.5080 c3        1 MOL     -0.093940
     89 C30        -3.4820    5.2440    2.9060 c3        1 MOL     -0.227719
     90 C31        -0.8480    3.6610    3.8800 c3        1 MOL     -0.273281
     91 H36        -1.2300    5.7100    0.0370 hn        1 MOL      0.144478
     92 H37        -3.9680    4.4640    0.4260 h1        1 MOL      0.097787
     93 H38        -3.1440    3.2610    2.3680 hc        1 MOL     -0.021424
     94 H39        -0.8210    5.2220    2.4770 hc        1 MOL      0.099493
     95 H40        -0.6290    3.5990    1.8190 hc        1 MOL      0.099493
     96 H41        -3.0260    6.2290    2.8020 hc        1 MOL      0.052748
     97 H42        -4.5200    5.2970    2.5970 hc        1 MOL      0.052748
     98 H43        -3.3850    5.0620    3.9830 hc        1 MOL      0.052748
     99 H44         0.1920    3.9730    3.9840 hc        1 MOL      0.076185
    100 H45        -1.4890    4.1150    4.6400 hc        1 MOL      0.076185
    101 H46        -0.9480    2.5710    3.9050 hc        1 MOL      0.076185
    102 N10        -2.8890    1.9680    0.0800 n         1 MOL     -0.528501
    103 C32        -2.4060    0.7060   -0.4600 c3        1 MOL      0.220852
    104 C33        -3.6030   -0.3120   -0.5920 c         1 MOL      0.344901
    105 O16        -3.3270   -1.5530   -0.6580 o         1 MOL     -0.440007
    106 C34        -1.3150    0.1340    0.3740 c3        1 MOL     -0.229539
    107 C35        -0.4330   -0.8830   -0.4810 c         1 MOL      0.687433
    108 O17         0.5460   -1.4950    0.0290 o         1 MOL     -0.746502
    109 O18        -0.5280   -1.0950   -1.7140 o         1 MOL     -0.746502
    110 H47        -3.4190    1.8970    0.9380 hn        1 MOL      0.283697
    111 H48        -2.0500    0.8880   -1.4730 h1        1 MOL      0.070650
    112 H49        -1.7690   -0.3690    1.2350 hc        1 MOL      0.097932
    113 H50        -0.7250    0.8770    0.9000 hc        1 MOL      0.097932
    114 N11        -4.8730    0.1230   -0.6110 n         1 MOL     -0.404320
    115 C36        -6.0270   -0.8190   -0.7680 c3        1 MOL      0.352837
    116 C37        -6.0960   -2.0170    0.1890 c         1 MOL      0.344726
    117 O19        -5.9910   -1.7410    1.4210 o         1 MOL     -0.546320
    118 C38        -7.2360    0.0560   -0.7180 c3        1 MOL     -0.260877
    119 C39        -8.5680   -0.6410   -1.0380 ca        1 MOL      0.087558
    120 C40        -8.9320   -1.0410   -2.3550 ca        1 MOL     -0.171667
    121 C41        -9.4070   -0.8760    0.0740 ca        1 MOL     -0.171667
    122 C42       -10.0960   -1.7900   -2.5820 ca        1 MOL     -0.104813
    123 C43       -10.6390   -1.5610   -0.1710 ca        1 MOL     -0.104813
    124 C44       -10.9210   -2.0940   -1.4890 ca        1 MOL     -0.136169
    125 H51        -5.0760    1.1030   -0.4410 hn        1 MOL      0.221542
    126 H52        -5.9910   -1.1150   -1.8160 h1        1 MOL     -0.013768
    127 H53        -7.0750    0.8150   -1.4840 hc        1 MOL      0.089243
    128 H54        -7.2920    0.4400    0.3010 hc        1 MOL      0.089243
    129 H55        -8.2570   -0.8290   -3.1690 ha        1 MOL      0.143511
    130 H56        -9.1340   -0.5860    1.0810 ha        1 MOL      0.143511
    131 H57       -10.2670   -2.0610   -3.6170 ha        1 MOL      0.114462
    132 H58       -11.2510   -1.8180    0.6750 ha        1 MOL      0.114462
    133 H59       -11.7720   -2.6850   -1.7970 ha        1 MOL      0.108795
    134 N12        -6.2180   -3.3340   -0.2880 n         1 MOL     -0.106400
    135 C45        -6.3640   -4.4980    0.5860 c3        1 MOL     -0.073437
    136 C46        -5.1840   -4.7580    1.5050 c         1 MOL      0.353649
    137 O20        -5.1900   -5.6710    2.3170 o         1 MOL     -0.538675
    138 C47        -6.6110   -5.6760   -0.3570 c3        1 MOL     -0.033653
    139 C48        -7.2130   -4.9800   -1.5630 c3        1 MOL     -0.010787
    140 C49        -6.3890   -3.6970   -1.6770 c3        1 MOL      0.058424
    141 H60        -7.2950   -4.4690    1.1460 h1        1 MOL      0.108296
    142 H61        -5.6330   -6.0910   -0.6220 hc        1 MOL      0.044540
    143 H62        -7.2480   -6.4930   -0.0340 hc        1 MOL      0.044540
    144 H63        -7.2200   -5.5920   -2.4680 hc        1 MOL      0.011744
    145 H64        -8.2520   -4.6710   -1.4690 hc        1 MOL      0.011744
    146 H65        -5.4020   -3.7680   -2.1370 h1        1 MOL      0.010948
    147 H66        -6.9130   -3.0210   -2.3530 h1        1 MOL      0.010948
    148 N13        -4.1430   -3.9330    1.5040 n         1 MOL     -0.042750
    149 C50        -2.9810   -3.8900    2.4620 c3        1 MOL     -0.141427
    150 C51        -3.0930   -2.6990    3.4460 c         1 MOL      0.446284
    151 O21        -2.5920   -2.8030    4.5660 o         1 MOL     -0.554003
    152 C52        -1.7010   -3.8060    1.6730 c3        1 MOL      0.096346
    153 C53        -1.3600   -4.9710    0.7810 c3        1 MOL     -0.151494
    154 C54        -0.2300   -4.6930   -0.2240 c         1 MOL      0.718288
    155 O22        -0.5230   -4.6860   -1.4280 o         1 MOL     -0.744384
    156 O23         0.9340   -4.4220    0.1160 o         1 MOL     -0.744384
    157 H67        -4.0240   -3.3770    0.6620 hn        1 MOL      0.146221
    158 H68        -3.0530   -4.7700    3.1090 h1        1 MOL      0.121120
    159 H69        -0.8610   -3.6650    2.3500 hc        1 MOL      0.022907
    160 H70        -1.7350   -2.8910    1.0770 hc        1 MOL      0.022907
    161 H71        -2.2060   -5.2490    0.1570 hc        1 MOL      0.008227
    162 H72        -1.1120   -5.8330    1.4020 hc        1 MOL      0.008227
    163 N14        -3.7940   -1.6220    3.2400 n         1 MOL     -0.144017
    164 C55        -4.2120   -0.6340    4.2790 c3        1 MOL     -0.393884
    165 H73        -3.3280   -0.2240    4.7660 h1        1 MOL      0.143409
    166 H74        -4.7740    0.1730    3.8080 h1        1 MOL      0.143409
    167 H75        -4.8380   -1.1300    5.0210 h1        1 MOL      0.143409
    168 H76        -4.0750   -1.4020    2.2970 hn        1 MOL      0.210001
    169 Ca1         1.4040   -2.9070   -2.0090 Ca        1 MOL      1.801047
    170 O24         2.4850   -5.3490   -2.8960 oh        1 MOL     -0.797941
    171 H77         3.4310   -5.4670   -2.9000 ho        1 MOL      0.388287
    172 H78         2.1950   -5.6970   -3.7370 ho        1 MOL      0.388287
    173 O25        -0.1850   -3.3310   -4.0780 oh        1 MOL     -0.797941
    174 H79        -1.1410   -3.3010   -4.0480 ho        1 MOL      0.388287
    175 H80         0.0130   -3.5830   -4.9880 ho        1 MOL      0.388287
    176 O26         2.8680   -2.7450   -4.2850 oh        1 MOL     -0.797941
    177 H81         3.2780   -2.1270   -4.8980 ho        1 MOL      0.388287
    178 H82         3.0800   -3.6010   -4.6330 ho        1 MOL      0.388287
@<TRIPOS>BOND
     1    1    2 1   
     2    1    4 1   
     3    1    5 1   
     4    1    6 1   
     5    2    3 2   
     6    2    7 1   
     7    7    8 1   
     8    7   15 1   
     9    8    9 1   
    10    8   11 1   
    11    8   16 1   
    12    9   10 2   
    13    9   19 1   
    14   11   12 1   
    15   11   17 1   
    16   11   18 1   
    17   12   13 1   
    18   12   14 1   
    19   19   20 1   
    20   19   24 1   
    21   20   21 1   
    22   20   23 1   
    23   20   25 1   
    24   21   22 2   
    25   21   29 1   
    26   23   26 1   
    27   23   27 1   
    28   23   28 1   
    29   29   30 1   
    30   29   37 1   
    31   30   31 1   
    32   30   33 1   
    33   30   38 1   
    34   31   32 2   
    35   31   41 1   
    36   33   34 1   
    37   33   39 1   
    38   33   40 1   
    39   34   35 1   
    40   34   36 1   
    41   41   42 1   
    42   41   45 1   
    43   42   43 1   
    44   42   46 1   
    45   42   47 1   
    46   43   44 2   
    47   43   48 1   
    48   48   49 1   
    49   48   56 1   
    50   49   50 1   
    51   49   52 1   
    52   49   57 1   
    53   50   51 2   
    54   50   62 1   
    55   52   53 1   
    56   52   58 1   
    57   52   59 1   
    58   53   54 1   
    59   53   55 2   
    60   54   60 1   
    61   54   61 1   
    62   62   63 1   
    63   62   66 1   
    64   63   64 1   
    65   63   67 1   
    66   63   68 1   
    67   64   65 2   
    68   64   69 1   
    69   69   70 1   
    70   69   76 1   
    71   70   71 1   
    72   70   73 1   
    73   70   77 1   
    74   71   72 2   
    75   71   83 1   
    76   73   74 1   
    77   73   75 1   
    78   73   78 1   
    79   74   80 1   
    80   74   81 1   
    81   74   82 1   
    82   75   79 1   
    83   83   84 1   
    84   83   91 1   
    85   84   85 1   
    86   84   87 1   
    87   84   92 1   
    88   85   86 2   
    89   85  102 1   
    90   87   88 1   
    91   87   89 1   
    92   87   93 1   
    93   88   90 1   
    94   88   94 1   
    95   88   95 1   
    96   89   96 1   
    97   89   97 1   
    98   89   98 1   
    99   90   99 1   
   100   90  100 1   
   101   90  101 1   
   102  102  103 1   
   103  102  110 1   
   104  103  104 1   
   105  103  106 1   
   106  103  111 1   
   107  104  105 2   
   108  104  114 1   
   109  106  107 1   
   110  106  112 1   
   111  106  113 1   
   112  107  108 1   
   113  107  109 1   
   114  114  115 1   
   115  114  125 1   
   116  115  116 1   
   117  115  118 1   
   118  115  126 1   
   119  116  117 2   
   120  116  134 1   
   121  118  119 1   
   122  118  127 1   
   123  118  128 1   
   124  119  120 ar  
   125  119  121 ar  
   126  120  122 ar  
   127  120  129 1   
   128  121  123 ar  
   129  121  130 1   
   130  122  124 ar  
   131  122  131 1   
   132  123  124 ar  
   133  123  132 1   
   134  124  133 1   
   135  134  135 1   
   136  134  140 1   
   137  135  136 1   
   138  135  138 1   
   139  135  141 1   
   140  136  137 2   
   141  136  148 1   
   142  138  139 1   
   143  138  142 1   
   144  138  143 1   
   145  139  140 1   
   146  139  144 1   
   147  139  145 1   
   148  140  146 1   
   149  140  147 1   
   150  148  149 1   
   151  148  157 1   
   152  149  150 1   
   153  149  152 1   
   154  149  158 1   
   155  150  151 2   
   156  150  163 1   
   157  152  153 1   
   158  152  159 1   
   159  152  160 1   
   160  153  154 1   
   161  153  161 1   
   162  153  162 1   
   163  154  155 1   
   164  154  156 1   
   165  163  164 1   
   166  163  168 1   
   167  164  165 1   
   168  164  166 1   
   169  164  167 1   
   170  170  171 1   
   171  170  172 1   
   172  173  174 1   
   173  173  175 1   
   174  176  177 1   
   175  176  178 1   
@<TRIPOS>SUBSTRUCTURE
     1 MOL         1 TEMP              0 ****  ****    0 ROOT
