@<TRIPOS>MOLECULE
MOL
  181   177     1     0     0
SMALL
resp


@<TRIPOS>ATOM
      1 C1          3.2810   -2.3940    3.9610 c3        1 MOL     -0.442978
      2 C2          4.3200   -1.2800    3.5520 c         1 MOL      0.635321
      3 O1          3.9580   -0.3660    2.8210 o         1 MOL     -0.551426
      4 H1          3.5630   -2.8170    4.9260 hc        1 MOL      0.118950
      5 H2          2.2860   -1.9550    4.0350 hc        1 MOL      0.118950
      6 H3          3.2760   -3.1820    3.2080 hc        1 MOL      0.118950
      7 N1          5.6320   -1.5000    3.7150 n         1 MOL     -0.607934
      8 C3          6.7160   -0.7050    3.0350 c3        1 MOL      0.188343
      9 C4          6.6170   -0.7370    1.5120 c         1 MOL      0.671644
     10 O2          6.4510   -1.7710    0.8630 o         1 MOL     -0.604859
     11 C5          8.0880   -1.2800    3.5080 c3        1 MOL     -0.232515
     12 C6          9.3450   -0.5370    3.1700 c         1 MOL      0.772879
     13 O3          9.3000    0.6310    2.7780 o         1 MOL     -0.744666
     14 O4         10.4100   -1.1470    3.2940 o         1 MOL     -0.744666
     15 H4          5.9290   -2.3690    4.1380 hn        1 MOL      0.317895
     16 H5          6.6240    0.3170    3.3800 h1        1 MOL      0.054251
     17 H6          8.1560   -2.3460    3.2970 hc        1 MOL      0.018505
     18 H7          7.9670   -1.2480    4.5890 hc        1 MOL      0.018505
     19 N2          6.7130    0.4690    0.8830 n         1 MOL     -0.636487
     20 C7          6.7960    0.5470   -0.5720 c3        1 MOL      0.423620
     21 C8          5.4300    1.0660   -1.1520 c         1 MOL      0.453553
     22 O5          4.7040    1.9420   -0.6470 o         1 MOL     -0.554310
     23 C9          7.9510    1.4450   -0.9520 c3        1 MOL     -0.239060
     24 H8          6.7710    1.3400    1.3950 hn        1 MOL      0.298891
     25 H9          7.0090   -0.4320   -1.0110 h1        1 MOL     -0.004199
     26 H10         8.0990    1.4620   -2.0330 hc        1 MOL      0.052810
     27 H11         7.8390    2.5010   -0.7040 hc        1 MOL      0.052810
     28 H12         8.8700    1.0090   -0.5560 hc        1 MOL      0.052810
     29 N3          5.0140    0.4990   -2.2940 n         1 MOL     -0.360174
     30 C10         3.7610    0.9350   -3.0160 c3        1 MOL     -0.075791
     31 C11         3.9310    2.3050   -3.6340 c         1 MOL      0.640297
     32 O6          5.0510    2.6310   -3.9690 o         1 MOL     -0.526527
     33 C12         3.2390   -0.0440   -4.0430 c3        1 MOL     -0.153225
     34 C13         3.5780   -1.5310   -3.6470 c         1 MOL      0.750715
     35 O7          2.6610   -2.2320   -3.1400 o         1 MOL     -0.718921
     36 O8          4.6990   -2.0090   -3.8140 o         1 MOL     -0.718921
     37 H13         5.6090   -0.1630   -2.7720 hn        1 MOL      0.222412
     38 H14         2.9560    0.9610   -2.2910 h1        1 MOL      0.105673
     39 H15         3.7100    0.0120   -5.0230 hc        1 MOL      0.039640
     40 H16         2.1940    0.1240   -4.3190 hc        1 MOL      0.039640
     41 N4          2.8210    3.1250   -3.6880 n         1 MOL     -0.524704
     42 C14         2.9570    4.4650   -4.2030 c3        1 MOL      0.016198
     43 C15         1.8410    5.4020   -3.9230 c         1 MOL      0.615466
     44 O9          1.8800    6.4200   -4.5710 o         1 MOL     -0.552504
     45 H17         1.9980    2.7800   -3.2230 hn        1 MOL      0.292430
     46 H18         3.0600    4.4400   -5.2880 h1        1 MOL      0.058527
     47 H19         3.9030    4.8950   -3.8690 h1        1 MOL      0.058527
     48 N5          0.9230    5.1000   -2.9910 n         1 MOL     -0.467775
     49 C16        -0.1790    6.0340   -2.7310 c3        1 MOL     -0.029630
     50 C17        -0.5830    6.2110   -1.3370 c         1 MOL      0.612383
     51 O10        -1.3360    7.1140   -1.0960 o         1 MOL     -0.526858
     52 C18        -1.4090    5.4790   -3.5030 c3        1 MOL     -0.263946
     53 C19        -1.2490    5.6780   -4.9820 c         1 MOL      0.657737
     54 N6         -1.4380    6.8550   -5.5350 n         1 MOL     -0.783366
     55 O11        -0.9790    4.7050   -5.7030 o         1 MOL     -0.555840
     56 H20         1.1000    4.3380   -2.3600 hn        1 MOL      0.285411
     57 H21         0.0510    7.0550   -3.0300 h1        1 MOL      0.103692
     58 H22        -2.2330    6.1600   -3.2640 hc        1 MOL      0.105400
     59 H23        -1.5700    4.4210   -3.3160 hc        1 MOL      0.105400
     60 H24        -1.7300    7.6290   -4.9490 hn        1 MOL      0.364318
     61 H25        -1.2940    6.9500   -6.5330 hn        1 MOL      0.364318
     62 N7          0.1440    5.6090   -0.3490 n         1 MOL     -0.476113
     63 C20        -0.1270    5.7510    1.1160 c3        1 MOL     -0.067354
     64 C21        -1.4650    5.1230    1.5930 c         1 MOL      0.545262
     65 O12        -2.2340    4.5430    0.8410 o         1 MOL     -0.443185
     66 H26         1.0340    5.2080   -0.6160 hn        1 MOL      0.303495
     67 H27        -0.0940    6.7920    1.4150 h1        1 MOL      0.092591
     68 H28         0.7540    5.3140    1.5780 h1        1 MOL      0.092591
     69 N8         -1.8620    5.3680    2.8620 n         1 MOL     -0.431260
     70 C22        -3.2320    5.0050    3.2900 c3        1 MOL     -0.125329
     71 C23        -3.3820    3.4870    3.5240 c         1 MOL      0.345801
     72 O13        -4.4540    2.9250    3.6900 o         1 MOL     -0.540123
     73 C24        -3.7990    5.7720    4.4470 c3        1 MOL      0.476149
     74 C25        -3.3350    5.4650    5.8750 c3        1 MOL     -0.334264
     75 O14        -3.5400    7.1150    4.2430 oh        1 MOL     -0.662507
     76 H29        -1.4040    6.0580    3.4360 hn        1 MOL      0.241730
     77 H30        -3.9040    5.1480    2.4410 h1        1 MOL      0.158062
     78 H31        -4.8790    5.7050    4.3680 h1        1 MOL      0.022088
     79 H32        -2.7080    7.3720    4.6360 ho        1 MOL      0.397280
     80 H33        -2.2620    5.3030    5.8460 hc        1 MOL      0.079281
     81 H34        -3.4840    6.2740    6.5870 hc        1 MOL      0.079281
     82 H35        -3.9420    4.6110    6.1770 hc        1 MOL      0.079281
     83 N9         -2.2250    2.8010    3.7480 n         1 MOL     -0.069647
     84 C26        -2.0800    1.3770    4.0980 c3        1 MOL      0.031890
     85 C27        -1.3930    0.7520    2.8980 c         1 MOL      0.518734
     86 O15        -0.2600    0.9670    2.5420 o         1 MOL     -0.464079
     87 C28        -1.2940    1.2200    5.4120 c3        1 MOL      0.055850
     88 C29        -1.7130    2.1170    6.6250 c3        1 MOL      0.050034
     89 C30        -1.4330   -0.2450    5.7660 c3        1 MOL     -0.083247
     90 C31        -3.1990    1.9140    7.1770 c3        1 MOL     -0.248212
     91 H36        -1.3950    3.2800    3.4400 hn        1 MOL      0.098499
     92 H37        -3.0950    1.0410    4.2870 h1        1 MOL      0.072860
     93 H38        -0.2650    1.4240    5.1130 hc        1 MOL      0.003456
     94 H39        -1.5950    3.1300    6.2330 hc        1 MOL     -0.017303
     95 H40        -1.0160    2.0370    7.4540 hc        1 MOL     -0.017303
     96 H41        -2.4580   -0.4130    6.0930 hc        1 MOL      0.019888
     97 H42        -1.0880   -0.9020    4.9770 hc        1 MOL      0.019888
     98 H43        -0.7860   -0.5390    6.6020 hc        1 MOL      0.019888
     99 H44        -3.8360    2.3120    6.3910 hc        1 MOL      0.064849
    100 H45        -3.3900    0.9020    7.5530 hc        1 MOL      0.064849
    101 H46        -3.3210    2.5780    8.0330 hc        1 MOL      0.064849
    102 N10        -2.1290   -0.1900    2.2440 n         1 MOL     -0.742646
    103 C32        -1.5980   -0.9540    1.0600 c3        1 MOL      0.543948
    104 C33        -2.6980   -1.3530   -0.0090 c         1 MOL      0.270021
    105 O16        -2.4850   -2.2440   -0.8320 o         1 MOL     -0.406189
    106 C34        -0.7210   -2.1260    1.5300 c3        1 MOL     -0.294826
    107 C35         0.3590   -2.5650    0.5730 c         1 MOL      0.774109
    108 O17         0.5810   -1.9660   -0.5230 o         1 MOL     -0.742000
    109 O18         1.0790   -3.5540    0.8140 o         1 MOL     -0.742000
    110 H47        -3.0900   -0.2790    2.5450 hn        1 MOL      0.305614
    111 H48        -0.9720   -0.2250    0.5430 h1        1 MOL      0.015555
    112 H49        -1.3070   -3.0050    1.8000 hc        1 MOL      0.071349
    113 H50        -0.1070   -1.9280    2.4130 hc        1 MOL      0.071349
    114 N11        -3.8540   -0.6930   -0.0400 n         1 MOL     -0.374011
    115 C36        -4.9800   -0.9790   -1.0230 c3        1 MOL      0.288596
    116 C37        -5.6370   -2.3790   -0.7580 c         1 MOL      0.175129
    117 O19        -5.8580   -2.7890    0.4090 o         1 MOL     -0.455275
    118 C38        -6.0670    0.0780   -0.7920 c3        1 MOL     -0.190728
    119 C39        -5.5990    1.3920   -1.4300 ca        1 MOL      0.102185
    120 C40        -5.5400    1.4660   -2.8400 ca        1 MOL     -0.192916
    121 C41        -5.2520    2.5300   -0.7220 ca        1 MOL     -0.192916
    122 C42        -5.0760    2.6030   -3.5220 ca        1 MOL     -0.123557
    123 C43        -4.7060    3.6070   -1.3340 ca        1 MOL     -0.123557
    124 C44        -4.5460    3.6630   -2.7400 ca        1 MOL     -0.041724
    125 H51        -3.9880    0.0070    0.6840 hn        1 MOL      0.246104
    126 H52        -4.5300   -0.9340   -2.0210 h1        1 MOL      0.040349
    127 H53        -6.3090    0.1860    0.2640 hc        1 MOL      0.077095
    128 H54        -7.0210   -0.2240   -1.2370 hc        1 MOL      0.077095
    129 H55        -5.7720    0.5470   -3.3610 ha        1 MOL      0.122852
    130 H56        -5.3270    2.5050    0.3570 ha        1 MOL      0.122852
    131 H57        -5.1030    2.7510   -4.5920 ha        1 MOL      0.111045
    132 H58        -4.4940    4.4970   -0.7660 ha        1 MOL      0.111045
    133 H59        -4.1570    4.5550   -3.2100 ha        1 MOL      0.068242
    134 N12        -5.7180   -3.1960   -1.8400 n         1 MOL     -0.019310
    135 C45        -6.2440   -4.6250   -1.8570 c3        1 MOL     -0.004206
    136 C46        -5.3650   -5.5400   -1.0800 c         1 MOL      0.316601
    137 O20        -5.8940   -6.4720   -0.4750 o         1 MOL     -0.520615
    138 C47        -6.2000   -5.1310   -3.3170 c3        1 MOL      0.081597
    139 C48        -6.2960   -3.7900   -4.0390 c3        1 MOL     -0.190553
    140 C49        -5.5000   -2.8320   -3.1990 c3        1 MOL      0.069668
    141 H60        -7.2750   -4.7310   -1.5060 h1        1 MOL      0.075044
    142 H61        -5.2680   -5.6350   -3.5850 hc        1 MOL      0.026570
    143 H62        -7.0310   -5.7580   -3.6320 hc        1 MOL      0.026570
    144 H63        -5.7520   -3.9660   -4.9620 hc        1 MOL      0.052742
    145 H64        -7.2700   -3.3520   -4.2370 hc        1 MOL      0.052742
    146 H65        -4.4270   -3.0310   -3.2310 h1        1 MOL      0.012888
    147 H66        -5.7490   -1.7970   -3.4110 h1        1 MOL      0.012888
    148 N13        -4.0620   -5.3610   -1.0120 n         1 MOL     -0.237107
    149 C50        -3.2450   -6.1250   -0.0810 c3        1 MOL     -0.273941
    150 C51        -3.6320   -5.8240    1.3630 c         1 MOL      0.486958
    151 O21        -3.3000   -6.6340    2.2310 o         1 MOL     -0.568390
    152 C52        -1.7870   -5.6850   -0.3180 c3        1 MOL      0.164411
    153 C53        -1.1890   -6.1660   -1.6210 c3        1 MOL     -0.065187
    154 C54         0.2380   -5.4780   -1.7960 c         1 MOL      0.516859
    155 O22         0.3820   -4.4170   -2.4590 o         1 MOL     -0.681147
    156 O23         1.2180   -5.8470   -1.0590 o         1 MOL     -0.681147
    157 H67        -3.6160   -4.6620   -1.5820 hn        1 MOL      0.299616
    158 H68        -3.2980   -7.2080   -0.2120 h1        1 MOL      0.157216
    159 H69        -1.1340   -5.9800    0.4960 hc        1 MOL      0.008661
    160 H70        -1.7740   -4.5970   -0.2360 hc        1 MOL      0.008661
    161 H71        -1.7750   -5.9040   -2.4920 hc        1 MOL     -0.011475
    162 H72        -1.0510   -7.2490   -1.5600 hc        1 MOL     -0.011475
    163 N14        -4.2810   -4.7200    1.7660 n         1 MOL     -0.037763
    164 C55        -4.5210   -4.4360    3.1600 c3        1 MOL     -0.185327
    165 H73        -4.5810   -5.3710    3.7160 h1        1 MOL      0.064687
    166 H74        -3.7050   -3.8310    3.5540 h1        1 MOL      0.064687
    167 H75        -5.4600   -3.8920    3.2630 h1        1 MOL      0.064687
    168 H76        -4.5900   -4.0230    1.1040 hn        1 MOL      0.109582
    169 Ca1         2.5390   -3.7240   -1.1250 Ca        1 MOL      1.720696
    170 O24         3.8580   -5.4980   -2.8090 oh        1 MOL     -0.815810
    171 H77         3.3710   -6.2320   -3.1820 ho        1 MOL      0.397572
    172 H78         4.3160   -5.1210   -3.5610 ho        1 MOL      0.397572
    173 O25         3.5700   -1.8090    0.4640 oh        1 MOL     -0.815810
    174 H79         4.4820   -1.6500    0.2370 ho        1 MOL      0.397572
    175 H80         3.5050   -1.6120    1.3950 ho        1 MOL      0.397572
    176 O26         3.7110   -5.0700    0.8950 oh        1 MOL     -0.815810
    177 H81         4.6060   -5.0600    1.2290 ho        1 MOL      0.397572
    178 H82         3.2510   -5.7060    1.4320 ho        1 MOL      0.397572
    179 O27         5.1360   -3.2000   -1.5140 oh        1 MOL     -0.815810
    180 H83         5.9340   -3.1850   -0.9870 ho        1 MOL      0.397572
    181 H84         5.3820   -2.7670   -2.3420 ho        1 MOL      0.397572
@<TRIPOS>BOND
     1    1    2 1   
     2    1    4 1   
     3    1    5 1   
     4    1    6 1   
     5    2    3 2   
     6    2    7 1   
     7    7    8 1   
     8    7   15 1   
     9    8    9 1   
    10    8   11 1   
    11    8   16 1   
    12    9   10 2   
    13    9   19 1   
    14   11   12 1   
    15   11   17 1   
    16   11   18 1   
    17   12   13 1   
    18   12   14 1   
    19   19   20 1   
    20   19   24 1   
    21   20   21 1   
    22   20   23 1   
    23   20   25 1   
    24   21   22 2   
    25   21   29 1   
    26   23   26 1   
    27   23   27 1   
    28   23   28 1   
    29   29   30 1   
    30   29   37 1   
    31   30   31 1   
    32   30   33 1   
    33   30   38 1   
    34   31   32 2   
    35   31   41 1   
    36   33   34 1   
    37   33   39 1   
    38   33   40 1   
    39   34   35 1   
    40   34   36 1   
    41   41   42 1   
    42   41   45 1   
    43   42   43 1   
    44   42   46 1   
    45   42   47 1   
    46   43   44 2   
    47   43   48 1   
    48   48   49 1   
    49   48   56 1   
    50   49   50 1   
    51   49   52 1   
    52   49   57 1   
    53   50   51 2   
    54   50   62 1   
    55   52   53 1   
    56   52   58 1   
    57   52   59 1   
    58   53   54 1   
    59   53   55 2   
    60   54   60 1   
    61   54   61 1   
    62   62   63 1   
    63   62   66 1   
    64   63   64 1   
    65   63   67 1   
    66   63   68 1   
    67   64   65 2   
    68   64   69 1   
    69   69   70 1   
    70   69   76 1   
    71   70   71 1   
    72   70   73 1   
    73   70   77 1   
    74   71   72 2   
    75   71   83 1   
    76   73   74 1   
    77   73   75 1   
    78   73   78 1   
    79   74   80 1   
    80   74   81 1   
    81   74   82 1   
    82   75   79 1   
    83   83   84 1   
    84   83   91 1   
    85   84   85 1   
    86   84   87 1   
    87   84   92 1   
    88   85   86 2   
    89   85  102 1   
    90   87   88 1   
    91   87   89 1   
    92   87   93 1   
    93   88   90 1   
    94   88   94 1   
    95   88   95 1   
    96   89   96 1   
    97   89   97 1   
    98   89   98 1   
    99   90   99 1   
   100   90  100 1   
   101   90  101 1   
   102  102  103 1   
   103  102  110 1   
   104  103  104 1   
   105  103  106 1   
   106  103  111 1   
   107  104  105 2   
   108  104  114 1   
   109  106  107 1   
   110  106  112 1   
   111  106  113 1   
   112  107  108 1   
   113  107  109 1   
   114  114  115 1   
   115  114  125 1   
   116  115  116 1   
   117  115  118 1   
   118  115  126 1   
   119  116  117 2   
   120  116  134 1   
   121  118  119 1   
   122  118  127 1   
   123  118  128 1   
   124  119  120 ar  
   125  119  121 ar  
   126  120  122 ar  
   127  120  129 1   
   128  121  123 ar  
   129  121  130 1   
   130  122  124 ar  
   131  122  131 1   
   132  123  124 ar  
   133  123  132 1   
   134  124  133 1   
   135  134  135 1   
   136  134  140 1   
   137  135  136 1   
   138  135  138 1   
   139  135  141 1   
   140  136  137 2   
   141  136  148 1   
   142  138  139 1   
   143  138  142 1   
   144  138  143 1   
   145  139  140 1   
   146  139  144 1   
   147  139  145 1   
   148  140  146 1   
   149  140  147 1   
   150  148  149 1   
   151  148  157 1   
   152  149  150 1   
   153  149  152 1   
   154  149  158 1   
   155  150  151 2   
   156  150  163 1   
   157  152  153 1   
   158  152  159 1   
   159  152  160 1   
   160  153  154 1   
   161  153  161 1   
   162  153  162 1   
   163  154  155 1   
   164  154  156 1   
   165  163  164 1   
   166  163  168 1   
   167  164  165 1   
   168  164  166 1   
   169  164  167 1   
   170  170  171 1   
   171  170  172 1   
   172  173  174 1   
   173  173  175 1   
   174  176  177 1   
   175  176  178 1   
   176  179  180 1   
   177  179  181 1   
@<TRIPOS>SUBSTRUCTURE
     1 MOL         1 TEMP              0 ****  ****    0 ROOT
