@<TRIPOS>MOLECULE
MOL
  192   187     1     0     0
SMALL
resp


@<TRIPOS>ATOM
      1 C1         -4.5470   -5.0010   -3.0580 c3        1 MOL     -0.409918
      2 C2         -5.2500   -3.9630   -2.1430 c         1 MOL      0.808570
      3 O1         -4.6830   -3.5290   -1.1290 o         1 MOL     -0.631101
      4 H1         -4.7420   -4.7550   -4.1020 hc        1 MOL      0.107180
      5 H2         -3.4730   -4.9800   -2.8750 hc        1 MOL      0.107180
      6 H3         -4.9340   -5.9960   -2.8430 hc        1 MOL      0.107180
      7 N1         -6.4880   -3.5560   -2.4450 n         1 MOL     -0.652964
      8 C3         -7.2360   -2.3960   -1.8420 c3        1 MOL      0.293333
      9 C4         -6.3090   -1.2070   -1.6270 c         1 MOL      0.268850
     10 O2         -5.8930   -0.8240   -0.5260 o         1 MOL     -0.410809
     11 C5         -8.0580   -2.8930   -0.6020 c3        1 MOL     -0.053449
     12 C6         -7.4490   -3.8580    0.4430 c         1 MOL      0.613459
     13 O3         -6.4920   -3.5720    1.2380 o         1 MOL     -0.678706
     14 O4         -7.9080   -5.0210    0.3700 o         1 MOL     -0.678706
     15 H4         -6.9090   -4.0030   -3.2490 hn        1 MOL      0.304558
     16 H5         -7.9640   -2.0440   -2.5720 h1        1 MOL      0.016687
     17 H6         -9.0030   -3.3100   -0.9480 hc        1 MOL     -0.005664
     18 H7         -8.3680   -2.0440   -0.0030 hc        1 MOL     -0.005664
     19 N2         -5.9140   -0.5950   -2.7910 n         1 MOL     -0.498047
     20 C7         -5.1050    0.6310   -3.0760 c3        1 MOL      0.014415
     21 C8         -5.8160    1.9400   -2.5490 c         1 MOL      0.338006
     22 O5         -5.8650    2.9700   -3.2130 o         1 MOL     -0.544975
     23 C9         -3.5340    0.4770   -2.7980 c3        1 MOL      0.077837
     24 C10        -2.6710    1.4890   -3.6550 c3        1 MOL     -0.131781
     25 C11        -3.0340   -0.9530   -3.0370 c3        1 MOL     -0.327652
     26 C12        -2.5540    1.0950   -5.1630 c3        1 MOL     -0.019893
     27 H8         -6.2270   -1.0050   -3.6520 hn        1 MOL      0.293646
     28 H9         -5.3610    0.6530   -4.1420 h1        1 MOL      0.085492
     29 H10        -3.4340    0.7640   -1.7490 hc        1 MOL      0.073861
     30 H11        -1.6930    1.5080   -3.1750 hc        1 MOL      0.076142
     31 H12        -3.0570    2.4940   -3.5610 hc        1 MOL      0.076142
     32 H13        -3.2150   -1.2040   -4.0760 hc        1 MOL      0.090588
     33 H14        -1.9490   -0.9740   -2.8960 hc        1 MOL      0.090588
     34 H15        -3.5220   -1.6450   -2.3440 hc        1 MOL      0.090588
     35 H16        -1.9720    1.8660   -5.6690 hc        1 MOL     -0.007701
     36 H17        -2.0270    0.1440   -5.3080 hc        1 MOL     -0.007701
     37 H18        -3.5370    0.9760   -5.6080 hc        1 MOL     -0.007701
     38 N3         -6.2310    1.8870   -1.2710 n         1 MOL      0.104607
     39 C13        -7.0130    2.8920   -0.6360 c3        1 MOL     -0.255067
     40 C14        -6.3080    4.2600   -0.2920 c         1 MOL      0.549118
     41 O6         -6.8910    5.3470   -0.4810 o         1 MOL     -0.547590
     42 C15        -7.7210    2.3630    0.5600 c3        1 MOL     -0.227485
     43 C16        -8.5080    3.3950    1.3640 c         1 MOL      0.726978
     44 O7         -9.7100    3.5800    1.0690 o         1 MOL     -0.700590
     45 O8         -7.9980    3.9810    2.3320 o         1 MOL     -0.700590
     46 H19        -6.0110    1.0760   -0.7120 hn        1 MOL      0.136599
     47 H20        -7.7960    3.1040   -1.3620 h1        1 MOL      0.114826
     48 H21        -7.0380    1.8840    1.2640 hc        1 MOL      0.037522
     49 H22        -8.3940    1.5740    0.2370 hc        1 MOL      0.037522
     50 N4         -5.0390    4.3530    0.1750 n         1 MOL     -0.369266
     51 C17        -4.2270    3.2470    0.6470 c3        1 MOL      0.096020
     52 C18        -3.3050    3.8240    1.7490 c         1 MOL      0.780170
     53 O9         -3.1160    5.0210    1.8590 o         1 MOL     -0.623363
     54 H23        -4.6070    5.2670    0.2750 hn        1 MOL      0.244856
     55 H24        -3.5890    2.8680   -0.1610 h1        1 MOL     -0.011259
     56 H25        -4.9120    2.4790    1.0080 h1        1 MOL     -0.011259
     57 N5         -2.7210    3.0060    2.6060 n         1 MOL     -0.499693
     58 C19        -2.8220    1.5260    2.7570 c3        1 MOL      0.245191
     59 C20        -2.5220    0.6950    1.4280 c         1 MOL      0.054611
     60 O10        -3.4020    0.0290    0.8760 o         1 MOL     -0.531850
     61 C21        -4.0590    1.0870    3.6150 c3        1 MOL     -0.578115
     62 C22        -4.1260    1.7980    4.9480 c         1 MOL      0.787334
     63 O11        -4.8950    2.7460    5.0890 o         1 MOL     -0.729771
     64 O12        -3.3660    1.4470    5.9230 o         1 MOL     -0.729771
     65 H26        -2.3390    3.5430    3.3740 hn        1 MOL      0.296046
     66 H27        -1.9200    1.3620    3.3570 h1        1 MOL      0.038242
     67 H28        -4.0510    0.0100    3.7910 hc        1 MOL      0.180980
     68 H29        -5.0000    1.2110    3.0860 hc        1 MOL      0.180980
     69 N6         -1.2970    0.6560    0.8810 n         1 MOL      0.029649
     70 C23        -0.2180    1.4700    1.2360 c3        1 MOL     -0.070874
     71 C24         0.1330    2.7010    0.2990 c         1 MOL      0.347898
     72 O13        -0.6870    3.1210   -0.4730 o         1 MOL     -0.460211
     73 H30        -1.2060    0.0160    0.1010 hn        1 MOL      0.212050
     74 H31         0.6330    0.7960    1.2110 h1        1 MOL      0.042392
     75 H32        -0.3470    1.8130    2.2650 h1        1 MOL      0.042392
     76 N7          1.3460    3.2360    0.3070 n         1 MOL     -0.420864
     77 C25         1.7720    4.3370   -0.5590 c3        1 MOL      0.098113
     78 C26         2.2600    4.0950   -1.9580 c         1 MOL      0.430380
     79 O14         2.1700    5.0310   -2.6730 o         1 MOL     -0.508392
     80 C27         2.7610    5.2470    0.2490 c3        1 MOL      0.228516
     81 C28         2.2610    5.7830    1.6310 c3        1 MOL     -0.412017
     82 C29         3.1830    6.8440    2.1780 c         1 MOL      0.804295
     83 N8          3.1110    7.0430    3.4350 n         1 MOL     -0.820630
     84 O15         3.9730    7.5190    1.5280 o         1 MOL     -0.625228
     85 H33         1.9540    3.0040    1.0780 hn        1 MOL      0.285221
     86 H34         0.9230    4.9780   -0.7710 h1        1 MOL      0.097106
     87 H35         3.0180    6.0660   -0.4160 hc        1 MOL     -0.040922
     88 H36         3.6690    4.6700    0.4380 hc        1 MOL     -0.040922
     89 H37         2.1660    4.9720    2.3580 hc        1 MOL      0.103933
     90 H38         1.3480    6.3440    1.4150 hc        1 MOL      0.103933
     91 H39         2.4990    6.4260    3.9490 hn        1 MOL      0.367793
     92 H40         3.6720    7.7680    3.8470 hn        1 MOL      0.367793
     93 N9          2.7560    2.8910   -2.2750 n         1 MOL     -0.285430
     94 C30         3.2930    2.5760   -3.6250 c3        1 MOL     -0.141934
     95 C31         4.7920    2.0350   -3.6280 c         1 MOL      0.459004
     96 O16         5.3360    1.8060   -4.6750 o         1 MOL     -0.542033
     97 C32         2.3820    1.6230   -4.4360 c3        1 MOL      0.194506
     98 C33         1.3010    2.4350   -5.1180 c3        1 MOL     -0.334188
     99 C34         1.7050    0.4660   -3.6760 c3        1 MOL     -0.334188
    100 H41         2.7990    2.1640   -1.5720 hn        1 MOL      0.241361
    101 H42         3.3940    3.4310   -4.2820 h1        1 MOL      0.142523
    102 H43         2.9070    1.1330   -5.2460 hc        1 MOL      0.021973
    103 H44         0.7710    1.7560   -5.7840 hc        1 MOL      0.093109
    104 H45         0.6120    2.8640   -4.3940 hc        1 MOL      0.093109
    105 H46         1.7190    3.2620   -5.6840 hc        1 MOL      0.093109
    106 H47         1.1360    0.7580   -2.7920 hc        1 MOL      0.093109
    107 H48         1.0290   -0.0350   -4.3610 hc        1 MOL      0.093109
    108 H49         2.4960   -0.1760   -3.2720 hc        1 MOL      0.093109
    109 N10         5.3900    1.8750   -2.4350 n         1 MOL     -0.241902
    110 C35         6.8080    1.5540   -2.2630 c3        1 MOL      0.158802
    111 C36         7.1220    0.1810   -1.5750 c         1 MOL      0.437054
    112 O17         8.1890   -0.4010   -1.7040 o         1 MOL     -0.551465
    113 C37         7.5800    2.6810   -1.5670 c3        1 MOL     -0.404409
    114 C38         6.8840    3.3320   -0.4190 c         1 MOL      0.590889
    115 N11         7.4750    4.3560    0.1570 n         1 MOL     -0.679532
    116 O18         5.8100    2.9150    0.0140 o         1 MOL     -0.491428
    117 H50         4.8310    2.1710   -1.6520 hn        1 MOL      0.142588
    118 H51         7.2410    1.4050   -3.2520 h1        1 MOL      0.076909
    119 H52         7.9130    3.3750   -2.3400 hc        1 MOL      0.135329
    120 H53         8.5090    2.2750   -1.1480 hc        1 MOL      0.135329
    121 H54         8.3850    4.6950   -0.1240 hn        1 MOL      0.340108
    122 H55         6.9700    4.9070    0.8250 hn        1 MOL      0.340108
    123 N12         6.1430   -0.3270   -0.9080 n         1 MOL     -0.399871
    124 C39         6.2470   -1.5010    0.0210 c3        1 MOL      0.212235
    125 C40         4.9500   -2.3460    0.2000 c         1 MOL      0.276166
    126 O19         3.8480   -1.7970    0.2210 o         1 MOL     -0.401023
    127 C41         6.7620   -1.2190    1.4770 c3        1 MOL     -0.004980
    128 C42         8.1650   -0.6210    1.6240 ca        1 MOL     -0.013444
    129 C43         8.3590    0.7350    1.6940 ca        1 MOL     -0.131240
    130 C44         9.3000   -1.4720    1.5800 ca        1 MOL     -0.131240
    131 C45         9.6430    1.2730    1.5380 ca        1 MOL     -0.227727
    132 C46        10.5790   -0.9650    1.3200 ca        1 MOL     -0.227727
    133 C47        10.7460    0.4270    1.1830 ca        1 MOL      0.315507
    134 O20        11.9410    0.9820    0.9100 oh        1 MOL     -0.520054
    135 H56         5.3010    0.2280   -0.9060 hn        1 MOL      0.209989
    136 H57         6.9810   -2.1700   -0.4180 h1        1 MOL      0.038543
    137 H58         6.6340   -2.0940    2.1070 hc        1 MOL      0.064390
    138 H59         6.1130   -0.5230    2.0000 hc        1 MOL      0.064390
    139 H60         7.5570    1.4490    1.8250 ha        1 MOL      0.114219
    140 H61         9.0540   -2.5170    1.4610 ha        1 MOL      0.114219
    141 H62         9.8060    2.3310    1.5570 ha        1 MOL      0.114813
    142 H63        11.3770   -1.6750    1.1730 ha        1 MOL      0.114813
    143 H64        12.5890    0.3090    0.6830 ho        1 MOL      0.380220
    144 N13         5.1860   -3.6800    0.4320 n         1 MOL     -0.471682
    145 C48         4.2390   -4.6480    1.0660 c3        1 MOL      0.097810
    146 C49         2.8990   -4.8870    0.3040 c         1 MOL      0.311236
    147 O21         2.1610   -5.8070    0.6530 o         1 MOL     -0.494108
    148 C50         4.0760   -4.3120    2.5560 c3        1 MOL      0.062612
    149 C51         5.3030   -4.5550    3.4380 c3        1 MOL     -0.258392
    150 C52         4.9700   -4.3600    4.9250 c         1 MOL      0.743010
    151 O22         4.5700   -5.3330    5.6020 o         1 MOL     -0.732232
    152 O23         5.1150   -3.2660    5.4410 o         1 MOL     -0.732232
    153 H65         6.1600   -3.9640    0.3810 hn        1 MOL      0.291569
    154 H66         4.6520   -5.6460    0.9210 h1        1 MOL      0.073212
    155 H67         3.2600   -4.9320    2.9350 hc        1 MOL      0.040040
    156 H68         3.7650   -3.2740    2.5910 hc        1 MOL      0.040040
    157 H69         6.0440   -3.9030    2.9710 hc        1 MOL      0.001907
    158 H70         5.6610   -5.5690    3.2570 hc        1 MOL      0.001907
    159 N14         2.4510   -4.0910   -0.7010 n         1 MOL     -0.120094
    160 C53         1.1670   -4.4180   -1.4510 c3        1 MOL     -0.304134
    161 C54         1.5920   -5.1950   -2.7080 c         1 MOL      0.455779
    162 O24         0.7570   -5.8060   -3.3800 o         1 MOL     -0.522790
    163 C55         0.4830   -3.0930   -1.8840 c3        1 MOL      0.234150
    164 C56         0.3380   -2.1240   -0.7150 c3        1 MOL     -0.068550
    165 C57        -0.6850   -2.5920    0.3660 c         1 MOL      0.507985
    166 O25        -1.9140   -2.5120    0.0670 o         1 MOL     -0.627038
    167 O26        -0.3260   -3.0680    1.4830 o         1 MOL     -0.627038
    168 H71         2.9060   -3.1940   -0.8600 hn        1 MOL      0.236254
    169 H72         0.4180   -4.9030   -0.8330 h1        1 MOL      0.251438
    170 H73        -0.4630   -3.2260   -2.3880 hc        1 MOL     -0.050070
    171 H74         1.1750   -2.5930   -2.5480 hc        1 MOL     -0.050070
    172 H75        -0.0150   -1.1660   -1.1060 hc        1 MOL     -0.026261
    173 H76         1.3420   -1.9300   -0.3330 hc        1 MOL     -0.026261
    174 N15         2.9210   -5.3380   -2.8460 n         1 MOL     -0.154916
    175 C58         3.5900   -6.2040   -3.8430 c3        1 MOL     -0.349415
    176 H77         3.0950   -6.0970   -4.8070 h1        1 MOL      0.126378
    177 H78         4.6360   -5.9100   -3.9360 h1        1 MOL      0.126378
    178 H79         3.5320   -7.2430   -3.5180 h1        1 MOL      0.126378
    179 H80         3.5370   -4.8750   -2.1950 hn        1 MOL      0.146273
    180 Ca1        -4.1670   -2.5480    1.3190 Ca        1 MOL      1.828544
    181 O27        -5.9260   -1.2140    2.6360 oh        1 MOL     -0.872615
    182 O28        -4.5020   -3.5410    3.9780 oh        1 MOL     -0.872615
    183 H81        -6.6910   -1.1930    2.0660 ho        1 MOL      0.419101
    184 H82        -5.0950   -4.1950    4.3720 ho        1 MOL      0.419101
    185 H83        -6.1790   -0.6660    3.3790 ho        1 MOL      0.419101
    186 H84        -4.0050   -3.1860    4.7240 ho        1 MOL      0.419101
    187 O29        -3.5160   -5.1870    1.3800 oh        1 MOL     -0.872615
    188 H85        -2.6640   -5.5780    1.5730 ho        1 MOL      0.419101
    189 H86        -4.1410   -5.9140    1.4580 ho        1 MOL      0.419101
    190 O30        -2.1360   -1.7850    2.9400 oh        1 MOL     -0.872615
    191 H87        -1.3680   -1.9290    2.3860 ho        1 MOL      0.419101
    192 H88        -1.8460   -2.0200    3.8180 ho        1 MOL      0.419101
@<TRIPOS>BOND
     1    1    2 1   
     2    1    4 1   
     3    1    5 1   
     4    1    6 1   
     5    2    3 2   
     6    2    7 1   
     7    7    8 1   
     8    7   15 1   
     9    8    9 1   
    10    8   11 1   
    11    8   16 1   
    12    9   10 2   
    13    9   19 1   
    14   11   12 1   
    15   11   17 1   
    16   11   18 1   
    17   12   13 1   
    18   12   14 1   
    19   19   20 1   
    20   19   27 1   
    21   20   21 1   
    22   20   23 1   
    23   20   28 1   
    24   21   22 2   
    25   21   38 1   
    26   23   24 1   
    27   23   25 1   
    28   23   29 1   
    29   24   26 1   
    30   24   30 1   
    31   24   31 1   
    32   25   32 1   
    33   25   33 1   
    34   25   34 1   
    35   26   35 1   
    36   26   36 1   
    37   26   37 1   
    38   38   39 1   
    39   38   46 1   
    40   39   40 1   
    41   39   42 1   
    42   39   47 1   
    43   40   41 2   
    44   40   50 1   
    45   42   43 1   
    46   42   48 1   
    47   42   49 1   
    48   43   44 1   
    49   43   45 1   
    50   50   51 1   
    51   50   54 1   
    52   51   52 1   
    53   51   55 1   
    54   51   56 1   
    55   52   53 2   
    56   52   57 1   
    57   57   58 1   
    58   57   65 1   
    59   58   59 1   
    60   58   61 1   
    61   58   66 1   
    62   59   60 2   
    63   59   69 1   
    64   61   62 1   
    65   61   67 1   
    66   61   68 1   
    67   62   63 1   
    68   62   64 1   
    69   69   70 1   
    70   69   73 1   
    71   70   71 1   
    72   70   74 1   
    73   70   75 1   
    74   71   72 2   
    75   71   76 1   
    76   76   77 1   
    77   76   85 1   
    78   77   78 1   
    79   77   80 1   
    80   77   86 1   
    81   78   79 2   
    82   78   93 1   
    83   80   81 1   
    84   80   87 1   
    85   80   88 1   
    86   81   82 1   
    87   81   89 1   
    88   81   90 1   
    89   82   83 1   
    90   82   84 2   
    91   83   91 1   
    92   83   92 1   
    93   93   94 1   
    94   93  100 1   
    95   94   95 1   
    96   94   97 1   
    97   94  101 1   
    98   95   96 2   
    99   95  109 1   
   100   97   98 1   
   101   97   99 1   
   102   97  102 1   
   103   98  103 1   
   104   98  104 1   
   105   98  105 1   
   106   99  106 1   
   107   99  107 1   
   108   99  108 1   
   109  109  110 1   
   110  109  117 1   
   111  110  111 1   
   112  110  113 1   
   113  110  118 1   
   114  111  112 2   
   115  111  123 1   
   116  113  114 1   
   117  113  119 1   
   118  113  120 1   
   119  114  115 1   
   120  114  116 2   
   121  115  121 1   
   122  115  122 1   
   123  123  124 1   
   124  123  135 1   
   125  124  125 1   
   126  124  127 1   
   127  124  136 1   
   128  125  126 2   
   129  125  144 1   
   130  127  128 1   
   131  127  137 1   
   132  127  138 1   
   133  128  129 ar  
   134  128  130 ar  
   135  129  131 ar  
   136  129  139 1   
   137  130  132 ar  
   138  130  140 1   
   139  131  133 ar  
   140  131  141 1   
   141  132  133 ar  
   142  132  142 1   
   143  133  134 1   
   144  134  143 1   
   145  144  145 1   
   146  144  153 1   
   147  145  146 1   
   148  145  148 1   
   149  145  154 1   
   150  146  147 2   
   151  146  159 1   
   152  148  149 1   
   153  148  155 1   
   154  148  156 1   
   155  149  150 1   
   156  149  157 1   
   157  149  158 1   
   158  150  151 1   
   159  150  152 1   
   160  159  160 1   
   161  159  168 1   
   162  160  161 1   
   163  160  163 1   
   164  160  169 1   
   165  161  162 2   
   166  161  174 1   
   167  163  164 1   
   168  163  170 1   
   169  163  171 1   
   170  164  165 1   
   171  164  172 1   
   172  164  173 1   
   173  165  166 1   
   174  165  167 1   
   175  174  175 1   
   176  174  179 1   
   177  175  176 1   
   178  175  177 1   
   179  175  178 1   
   180  181  183 1   
   181  181  185 1   
   182  182  184 1   
   183  182  186 1   
   184  187  188 1   
   185  187  189 1   
   186  190  191 1   
   187  190  192 1   
@<TRIPOS>SUBSTRUCTURE
     1 MOL         1 TEMP              0 ****  ****    0 ROOT
