@<TRIPOS>MOLECULE
MOL
  195   189     1     0     0
SMALL
resp


@<TRIPOS>ATOM
      1 C1          2.0280    2.4170    1.0670 c3        1 MOL      0.095776
      2 C2          0.8790    3.0530    0.2140 c         1 MOL      0.413093
      3 O1         -0.1550    2.4740   -0.1050 o         1 MOL     -0.478016
      4 H1          2.6370    3.2090    1.5030 hc        1 MOL     -0.084443
      5 H2          1.5970    1.8090    1.8630 hc        1 MOL     -0.084443
      6 H3          2.6510    1.7900    0.4280 hc        1 MOL     -0.084443
      7 N1          1.0920    4.3130   -0.3000 n         1 MOL     -0.243912
      8 C3          0.1260    5.1630   -1.1000 c3        1 MOL      0.143158
      9 C4         -1.2390    5.1280   -0.4260 c         1 MOL      0.506223
     10 O2         -2.3140    4.9620   -1.0460 o         1 MOL     -0.490436
     11 C5          0.2120    4.7150   -2.5870 c3        1 MOL     -0.126946
     12 C6         -0.3180    5.7050   -3.5330 c         1 MOL      0.646167
     13 O3         -0.6400    5.4380   -4.7150 o         1 MOL     -0.601405
     14 O4         -0.4360    6.8860   -3.1630 o         1 MOL     -0.601405
     15 H4          2.0370    4.6130   -0.1110 hn        1 MOL      0.148504
     16 H5          0.4610    6.1990   -1.1230 h1        1 MOL     -0.005024
     17 H6         -0.3820    3.8130   -2.6570 hc        1 MOL      0.043985
     18 H7          1.2420    4.3840   -2.7350 hc        1 MOL      0.043985
     19 N2         -1.2860    5.2630    0.8600 n         1 MOL     -0.437902
     20 C7         -2.5130    5.1730    1.6400 c3        1 MOL      0.318082
     21 C8         -3.5450    6.2980    1.4110 c         1 MOL      0.404951
     22 O5         -3.1240    7.4630    1.1800 o         1 MOL     -0.544340
     23 C9         -2.3310    4.8860    3.1630 c3        1 MOL      0.073754
     24 C10        -1.2810    5.7630    3.9120 c3        1 MOL     -0.144339
     25 C11        -1.8620    3.4430    3.2260 c3        1 MOL     -0.110451
     26 C12        -1.6630    7.2290    4.1820 c3        1 MOL     -0.060844
     27 H8         -0.3740    5.4360    1.2660 hn        1 MOL      0.194034
     28 H9         -3.0230    4.3210    1.2020 h1        1 MOL      0.005085
     29 H10        -3.2150    4.9080    3.7960 hc        1 MOL      0.053148
     30 H11        -0.3500    5.7590    3.3360 hc        1 MOL      0.021849
     31 H12        -0.9720    5.3600    4.8680 hc        1 MOL      0.021849
     32 H13        -1.6860    3.1510    4.2610 hc        1 MOL      0.034815
     33 H14        -2.5740    2.6890    2.8950 hc        1 MOL      0.034815
     34 H15        -0.9220    3.3730    2.6910 hc        1 MOL      0.034815
     35 H16        -1.0150    7.7390    4.8970 hc        1 MOL      0.009261
     36 H17        -1.7020    7.7870    3.2460 hc        1 MOL      0.009261
     37 H18        -2.6850    7.3010    4.5340 hc        1 MOL      0.009261
     38 N3         -4.8430    5.9820    1.2860 n         1 MOL     -0.581288
     39 C13        -5.5740    4.7670    1.5740 c3        1 MOL      0.323531
     40 C14        -6.3150    4.3070    0.3050 c         1 MOL      0.465863
     41 O6         -7.4470    3.9250    0.3170 o         1 MOL     -0.471137
     42 C15        -6.5510    4.9140    2.7270 c3        1 MOL     -0.262310
     43 C16        -7.3230    3.6780    3.1210 c         1 MOL      0.697543
     44 O7         -8.5240    3.9400    3.4240 o         1 MOL     -0.654381
     45 O8         -6.8480    2.5410    3.0970 o         1 MOL     -0.654381
     46 H19        -5.3770    6.7910    1.0040 hn        1 MOL      0.319733
     47 H20        -4.9980    3.8950    1.8920 h1        1 MOL     -0.040902
     48 H21        -7.1630    5.7760    2.4870 hc        1 MOL      0.034623
     49 H22        -5.9480    5.1270    3.6140 hc        1 MOL      0.034623
     50 N4         -5.6850    4.4200   -0.8830 n         1 MOL     -0.256548
     51 C17        -6.3400    4.4530   -2.2010 c3        1 MOL     -0.364368
     52 C18        -6.8260    3.1540   -2.6440 c         1 MOL      0.591357
     53 O9         -7.8950    3.0370   -3.2770 o         1 MOL     -0.560232
     54 H23        -4.7170    4.6890   -0.7990 hn        1 MOL      0.241662
     55 H24        -5.6030    4.7180   -2.9480 h1        1 MOL      0.164218
     56 H25        -7.1950    5.1280   -2.1130 h1        1 MOL      0.164218
     57 N5         -5.9840    2.0880   -2.4940 n         1 MOL     -0.340514
     58 C19        -6.2290    0.8400   -3.2640 c3        1 MOL     -0.148249
     59 C20        -7.1150   -0.1140   -2.4110 c         1 MOL      0.484542
     60 O10        -7.8640   -0.8660   -3.0380 o         1 MOL     -0.575282
     61 C21        -4.9120    0.1540   -3.5620 c3        1 MOL      0.078219
     62 C22        -3.9090    0.0220   -2.3750 c         1 MOL      0.652267
     63 O11        -2.9900    0.9160   -2.3930 o         1 MOL     -0.613861
     64 O12        -3.8690   -1.0320   -1.7360 o         1 MOL     -0.613861
     65 H26        -5.2640    2.1350   -1.7850 hn        1 MOL      0.162226
     66 H27        -6.6730    1.1520   -4.1980 h1        1 MOL      0.134236
     67 H28        -4.3550    0.6780   -4.3320 hc        1 MOL     -0.012080
     68 H29        -5.0600   -0.8420   -3.9840 hc        1 MOL     -0.012080
     69 N6         -7.0020   -0.1640   -1.0980 n         1 MOL     -0.154487
     70 C23        -7.7200   -1.1510   -0.2670 c3        1 MOL     -0.387181
     71 C24        -7.0540   -2.5330   -0.1220 c         1 MOL      0.695527
     72 O13        -7.5890   -3.3840    0.5480 o         1 MOL     -0.643789
     73 H30        -6.4550    0.5110   -0.5930 hn        1 MOL      0.267002
     74 H31        -8.6750   -1.3300   -0.7580 h1        1 MOL      0.159462
     75 H32        -7.8930   -0.6080    0.6610 h1        1 MOL      0.159462
     76 N7         -5.9120   -2.8310   -0.7490 n         1 MOL     -0.073285
     77 C25        -5.2580   -4.0730   -1.0040 c3        1 MOL     -0.079364
     78 C26        -5.0160   -5.0310    0.2170 c         1 MOL      0.569343
     79 O14        -4.7740   -6.2090    0.0910 o         1 MOL     -0.516521
     80 C27        -5.8760   -4.8020   -2.2090 c3        1 MOL      0.280918
     81 C28        -6.1380   -3.9720   -3.5140 c3        1 MOL     -0.238885
     82 C29        -5.8390   -4.7940   -4.8120 c         1 MOL      0.619095
     83 N8         -6.1700   -4.2420   -5.9960 n         1 MOL     -0.791955
     84 O15        -5.3820   -5.9530   -4.8480 o         1 MOL     -0.546475
     85 H33        -5.5840   -1.9940   -1.2040 hn        1 MOL     -0.055535
     86 H34        -4.2800   -3.7580   -1.3550 h1        1 MOL      0.121752
     87 H35        -6.8000   -5.2050   -1.7990 hc        1 MOL     -0.073843
     88 H36        -5.2190   -5.6110   -2.5260 hc        1 MOL     -0.073843
     89 H37        -5.3100   -3.2600   -3.4640 hc        1 MOL      0.067346
     90 H38        -7.1680   -3.6180   -3.5520 hc        1 MOL      0.067346
     91 H39        -6.6930   -3.3810   -5.9000 hn        1 MOL      0.355627
     92 H40        -6.0190   -4.7840   -6.8300 hn        1 MOL      0.355627
     93 N9         -4.9280   -4.4470    1.4660 n         1 MOL     -0.406523
     94 C30        -4.5330   -5.1270    2.6630 c3        1 MOL     -0.006890
     95 C31        -3.1240   -4.8070    3.2040 c         1 MOL      0.632505
     96 O16        -2.4240   -5.6820    3.6780 o         1 MOL     -0.594523
     97 C32        -5.5640   -4.9190    3.8210 c3        1 MOL      0.276521
     98 C33        -5.7160   -3.4220    4.1140 c3        1 MOL     -0.321288
     99 C34        -6.9510   -5.6130    3.6370 c3        1 MOL     -0.321288
    100 H41        -5.2150   -3.4770    1.4740 hn        1 MOL      0.184496
    101 H42        -4.5620   -6.1730    2.3780 h1        1 MOL      0.068926
    102 H43        -5.0670   -5.3630    4.6800 hc        1 MOL     -0.063901
    103 H44        -4.8600   -3.0590    4.6710 hc        1 MOL      0.077593
    104 H45        -5.8630   -2.8760    3.1800 hc        1 MOL      0.077593
    105 H46        -6.5300   -3.1830    4.7950 hc        1 MOL      0.077593
    106 H47        -6.8420   -6.6830    3.4910 hc        1 MOL      0.077593
    107 H48        -7.5500   -5.4440    4.5370 hc        1 MOL      0.077593
    108 H49        -7.5070   -5.2200    2.7830 hc        1 MOL      0.077593
    109 N10        -2.6310   -3.5810    2.9630 n         1 MOL     -0.592931
    110 C35        -1.2130   -3.2530    3.0770 c3        1 MOL      0.325674
    111 C36        -0.6610   -2.9700    1.6310 c         1 MOL      0.518422
    112 O17        -1.3140   -2.9190    0.6120 o         1 MOL     -0.516165
    113 C37        -0.9810   -2.1320    4.0760 c3        1 MOL     -0.067184
    114 C38         0.3290   -2.1780    4.8310 c         1 MOL      0.590366
    115 N11         0.3200   -2.1830    6.1550 n         1 MOL     -0.783143
    116 O18         1.3630   -2.4150    4.2990 o         1 MOL     -0.508941
    117 H50        -3.2110   -3.0280    2.3610 hn        1 MOL      0.280274
    118 H51        -0.6550   -4.1150    3.4390 h1        1 MOL      0.026877
    119 H52        -1.8230   -2.1100    4.7580 hc        1 MOL      0.021713
    120 H53        -0.9700   -1.1410    3.6260 hc        1 MOL      0.021713
    121 H54        -0.4850   -2.0170    6.7350 hn        1 MOL      0.353429
    122 H55         1.2510   -2.2790    6.5370 hn        1 MOL      0.353429
    123 N12         0.6610   -2.7140    1.6390 n         1 MOL     -0.478838
    124 C39         1.4220   -2.6210    0.3760 c3        1 MOL      0.028230
    125 C40         2.9130   -3.0400    0.5700 c         1 MOL      0.732459
    126 O19         3.5310   -2.8420    1.6150 o         1 MOL     -0.573434
    127 C41         1.3350   -1.1860   -0.1670 c3        1 MOL     -0.518084
    128 C42         2.0850   -0.9680   -1.5030 ca        1 MOL      0.094964
    129 C43         3.3740   -0.4590   -1.4780 ca        1 MOL     -0.073760
    130 C44         1.4540   -1.2170   -2.7090 ca        1 MOL     -0.073760
    131 C45         4.0350   -0.1840   -2.6420 ca        1 MOL     -0.366578
    132 C46         2.0740   -1.1050   -3.9420 ca        1 MOL     -0.366578
    133 C47         3.3950   -0.5260   -3.9180 ca        1 MOL      0.360456
    134 O20         4.1720   -0.4430   -5.0100 oh        1 MOL     -0.488226
    135 H56         1.1740   -2.7510    2.5150 hn        1 MOL      0.240657
    136 H57         0.9590   -3.3070   -0.3270 h1        1 MOL      0.091528
    137 H58         1.7900   -0.5260    0.5790 hc        1 MOL      0.241465
    138 H59         0.2920   -0.9070   -0.3110 hc        1 MOL      0.241465
    139 H60         3.8870   -0.1000   -0.6010 ha        1 MOL      0.168235
    140 H61         0.4190   -1.5260   -2.6770 ha        1 MOL      0.168235
    141 H62         4.9790    0.3370   -2.5730 ha        1 MOL      0.186213
    142 H63         1.6360   -1.4580   -4.8600 ha        1 MOL      0.186213
    143 H64         5.0440   -0.1690   -4.7330 ho        1 MOL      0.379033
    144 N13         3.5430   -3.7030   -0.4170 n         1 MOL     -0.832180
    145 C48         4.8230   -4.4550   -0.3460 c3        1 MOL      0.274020
    146 C49         5.8730   -3.8790   -1.3100 c         1 MOL      0.709000
    147 O21         5.8940   -4.1880   -2.5150 o         1 MOL     -0.549161
    148 C50         4.5470   -5.9480   -0.7280 c3        1 MOL      0.565378
    149 C51         5.7170   -6.9350   -0.4490 c3        1 MOL     -0.217239
    150 C52         6.8620   -7.0440   -1.4990 c         1 MOL      0.634818
    151 O22         6.6220   -7.3820   -2.7080 o         1 MOL     -0.619975
    152 O23         8.0180   -6.7980   -1.0750 o         1 MOL     -0.619975
    153 H65         3.1630   -3.8450   -1.3430 hn        1 MOL      0.331256
    154 H66         5.2000   -4.3840    0.6710 h1        1 MOL     -0.022020
    155 H67         4.2600   -6.1300   -1.7640 hc        1 MOL     -0.157338
    156 H68         3.7080   -6.3420   -0.1620 hc        1 MOL     -0.157338
    157 H69         5.1970   -7.8970   -0.4340 hc        1 MOL     -0.002770
    158 H70         6.0780   -6.8500    0.5720 hc        1 MOL     -0.002770
    159 N14         6.7320   -2.8900   -0.8690 n         1 MOL     -0.715078
    160 C53         6.6780   -2.2230    0.4250 c3        1 MOL      0.136976
    161 C54         7.1140   -3.1370    1.5820 c         1 MOL      0.349311
    162 O24         8.1020   -3.8600    1.4290 o         1 MOL     -0.512272
    163 C55         7.6400   -1.0310    0.4180 c3        1 MOL     -0.495084
    164 C56         7.1230    0.1330   -0.4160 c3        1 MOL     -0.807175
    165 C57         7.8520    1.4330   -0.0250 c         1 MOL      1.149318
    166 O25         9.0480    1.4440    0.3370 o         1 MOL     -0.827774
    167 O26         7.3640    2.5860   -0.1910 o         1 MOL     -0.827774
    168 H71         7.4410   -2.5090   -1.4680 hn        1 MOL      0.346504
    169 H72         5.6510   -1.9410    0.6840 h1        1 MOL      0.146627
    170 H73         8.5880   -1.3360   -0.0220 hc        1 MOL      0.248935
    171 H74         7.7270   -0.6550    1.4370 hc        1 MOL      0.248935
    172 H75         6.0380    0.1640   -0.2940 hc        1 MOL      0.258322
    173 H76         7.2780   -0.1130   -1.4710 hc        1 MOL      0.258322
    174 N15         6.3820   -3.1440    2.6770 n         1 MOL     -0.049781
    175 C58         6.7640   -3.7980    3.9570 c3        1 MOL     -0.690782
    176 H77         7.6900   -3.3580    4.3280 h1        1 MOL      0.221512
    177 H78         5.9720   -3.6500    4.6920 h1        1 MOL      0.221512
    178 H79         6.9110   -4.8650    3.7910 h1        1 MOL      0.221512
    179 H80         5.6190   -2.4840    2.5980 hn        1 MOL      0.159010
    180 Ca1         9.4370    4.1150    0.2880 Ca        1 MOL      1.136894
    181 O27         9.6070    5.9900   -1.8000 oh        1 MOL     -0.534203
    182 H81         8.8420    6.1360   -2.3450 ho        1 MOL      0.240407
    183 H82         9.8970    6.8690   -1.5540 ho        1 MOL      0.240407
    184 O28         9.6910    3.3520   -2.5260 oh        1 MOL     -0.534203
    185 H83        10.2590    3.9540   -3.0070 ho        1 MOL      0.240407
    186 H84         9.1480    2.9430   -3.2100 ho        1 MOL      0.240407
    187 O29        10.9510    2.9960    2.3230 oh        1 MOL     -0.534203
    188 H85        10.2040    2.7560    2.8840 ho        1 MOL      0.240407
    189 H86        11.6370    3.2270    2.9470 ho        1 MOL      0.240407
    190 O30        12.0550    3.0720   -0.5950 oh        1 MOL     -0.534203
    191 H87        12.6730    3.1310    0.1380 ho        1 MOL      0.240407
    192 H88        12.6100    3.0690   -1.3730 ho        1 MOL      0.240407
    193 O31        11.1530    5.9150    1.0050 oh        1 MOL     -0.534203
    194 H89        11.9640    5.7140    1.4600 ho        1 MOL      0.240407
    195 H90        11.0580    6.8620    1.0840 ho        1 MOL      0.240407
@<TRIPOS>BOND
     1    1    2 1   
     2    1    4 1   
     3    1    5 1   
     4    1    6 1   
     5    2    3 2   
     6    2    7 1   
     7    7    8 1   
     8    7   15 1   
     9    8    9 1   
    10    8   11 1   
    11    8   16 1   
    12    9   10 2   
    13    9   19 1   
    14   11   12 1   
    15   11   17 1   
    16   11   18 1   
    17   12   13 1   
    18   12   14 1   
    19   19   20 1   
    20   19   27 1   
    21   20   21 1   
    22   20   23 1   
    23   20   28 1   
    24   21   22 2   
    25   21   38 1   
    26   23   24 1   
    27   23   25 1   
    28   23   29 1   
    29   24   26 1   
    30   24   30 1   
    31   24   31 1   
    32   25   32 1   
    33   25   33 1   
    34   25   34 1   
    35   26   35 1   
    36   26   36 1   
    37   26   37 1   
    38   38   39 1   
    39   38   46 1   
    40   39   40 1   
    41   39   42 1   
    42   39   47 1   
    43   40   41 2   
    44   40   50 1   
    45   42   43 1   
    46   42   48 1   
    47   42   49 1   
    48   43   44 1   
    49   43   45 1   
    50   50   51 1   
    51   50   54 1   
    52   51   52 1   
    53   51   55 1   
    54   51   56 1   
    55   52   53 2   
    56   52   57 1   
    57   57   58 1   
    58   57   65 1   
    59   58   59 1   
    60   58   61 1   
    61   58   66 1   
    62   59   60 2   
    63   59   69 1   
    64   61   62 1   
    65   61   67 1   
    66   61   68 1   
    67   62   63 1   
    68   62   64 1   
    69   69   70 1   
    70   69   73 1   
    71   70   71 1   
    72   70   74 1   
    73   70   75 1   
    74   71   72 2   
    75   71   76 1   
    76   76   77 1   
    77   76   85 1   
    78   77   78 1   
    79   77   80 1   
    80   77   86 1   
    81   78   79 2   
    82   78   93 1   
    83   80   81 1   
    84   80   87 1   
    85   80   88 1   
    86   81   82 1   
    87   81   89 1   
    88   81   90 1   
    89   82   83 1   
    90   82   84 2   
    91   83   91 1   
    92   83   92 1   
    93   93   94 1   
    94   93  100 1   
    95   94   95 1   
    96   94   97 1   
    97   94  101 1   
    98   95   96 2   
    99   95  109 1   
   100   97   98 1   
   101   97   99 1   
   102   97  102 1   
   103   98  103 1   
   104   98  104 1   
   105   98  105 1   
   106   99  106 1   
   107   99  107 1   
   108   99  108 1   
   109  109  110 1   
   110  109  117 1   
   111  110  111 1   
   112  110  113 1   
   113  110  118 1   
   114  111  112 2   
   115  111  123 1   
   116  113  114 1   
   117  113  119 1   
   118  113  120 1   
   119  114  115 1   
   120  114  116 2   
   121  115  121 1   
   122  115  122 1   
   123  123  124 1   
   124  123  135 1   
   125  124  125 1   
   126  124  127 1   
   127  124  136 1   
   128  125  126 2   
   129  125  144 1   
   130  127  128 1   
   131  127  137 1   
   132  127  138 1   
   133  128  129 ar  
   134  128  130 ar  
   135  129  131 ar  
   136  129  139 1   
   137  130  132 ar  
   138  130  140 1   
   139  131  133 ar  
   140  131  141 1   
   141  132  133 ar  
   142  132  142 1   
   143  133  134 1   
   144  134  143 1   
   145  144  145 1   
   146  144  153 1   
   147  145  146 1   
   148  145  148 1   
   149  145  154 1   
   150  146  147 2   
   151  146  159 1   
   152  148  149 1   
   153  148  155 1   
   154  148  156 1   
   155  149  150 1   
   156  149  157 1   
   157  149  158 1   
   158  150  151 1   
   159  150  152 1   
   160  159  160 1   
   161  159  168 1   
   162  160  161 1   
   163  160  163 1   
   164  160  169 1   
   165  161  162 2   
   166  161  174 1   
   167  163  164 1   
   168  163  170 1   
   169  163  171 1   
   170  164  165 1   
   171  164  172 1   
   172  164  173 1   
   173  165  166 1   
   174  165  167 1   
   175  174  175 1   
   176  174  179 1   
   177  175  176 1   
   178  175  177 1   
   179  175  178 1   
   180  181  182 1   
   181  181  183 1   
   182  184  185 1   
   183  184  186 1   
   184  187  188 1   
   185  187  189 1   
   186  190  191 1   
   187  190  192 1   
   188  193  194 1   
   189  193  195 1   
@<TRIPOS>SUBSTRUCTURE
     1 MOL         1 TEMP              0 ****  ****    0 ROOT
