@<TRIPOS>MOLECULE
MOL
  181   177     1     0     0
SMALL
resp


@<TRIPOS>ATOM
      1 C1          6.8620    3.7570    5.0720 c3        1 MOL     -0.279095
      2 C2          5.9430    2.7300    4.3910 c         1 MOL      0.622458
      3 O1          4.7390    2.6010    4.6670 o         1 MOL     -0.561057
      4 H1          7.8250    3.7760    4.5610 hc        1 MOL      0.071168
      5 H2          6.4040    4.7450    5.0200 hc        1 MOL      0.071168
      6 H3          7.0100    3.4790    6.1150 hc        1 MOL      0.071168
      7 N1          6.5160    1.8690    3.5290 n         1 MOL     -0.346941
      8 C3          7.8850    1.7450    3.0570 c3        1 MOL     -0.050788
      9 C4          8.3270    0.2780    2.6850 c         1 MOL      0.498836
     10 O2          7.6710   -0.6000    3.2120 o         1 MOL     -0.443820
     11 C5          8.0700    2.6970    1.8280 c3        1 MOL     -0.320148
     12 C6          7.1720    2.2650    0.6180 c         1 MOL      0.708408
     13 O3          6.1990    2.9220    0.2030 o         1 MOL     -0.714634
     14 O4          7.5240    1.2290   -0.0590 o         1 MOL     -0.714634
     15 H4          5.8770    1.2750    3.0120 hn        1 MOL      0.243895
     16 H5          8.6170    1.9830    3.8240 h1        1 MOL      0.091320
     17 H6          9.0890    2.8660    1.4710 hc        1 MOL      0.075175
     18 H7          7.6740    3.6760    2.0890 hc        1 MOL      0.075175
     19 N2          9.3190    0.0640    1.8580 n         1 MOL     -0.419904
     20 C7          9.8950   -1.2680    1.6980 c3        1 MOL      0.198320
     21 C8          8.9670   -2.3810    1.2130 c         1 MOL      0.431438
     22 O5          9.1790   -3.5630    1.4310 o         1 MOL     -0.518128
     23 C9         10.6570   -1.5860    3.0040 c3        1 MOL     -0.289886
     24 H8          9.6930    0.8500    1.3380 hn        1 MOL      0.279810
     25 H9         10.6210   -1.1180    0.9020 h1        1 MOL      0.030014
     26 H10         9.8930   -1.6780    3.7710 hc        1 MOL      0.076418
     27 H11        11.2880   -2.4720    2.9090 hc        1 MOL      0.076418
     28 H12        11.2200   -0.6980    3.2770 hc        1 MOL      0.076418
     29 N3          7.9130   -1.9830    0.4560 n         1 MOL     -0.326970
     30 C10         6.8340   -2.9180    0.0470 c3        1 MOL      0.132065
     31 C11         6.4290   -2.6060   -1.4190 c         1 MOL      0.397185
     32 O6          6.4580   -1.4600   -1.9330 o         1 MOL     -0.565926
     33 C12         5.6520   -2.9460    1.0360 c3        1 MOL      0.003297
     34 C13         5.0080   -1.5220    1.4200 c         1 MOL      0.624434
     35 O7          4.5320   -1.3980    2.5780 o         1 MOL     -0.644131
     36 O8          4.9780   -0.6870    0.5230 o         1 MOL     -0.644131
     37 H13         7.7130   -1.0020    0.3460 hn        1 MOL      0.124516
     38 H14         7.2510   -3.9230   -0.0140 h1        1 MOL      0.006174
     39 H15         5.9360   -3.3740    1.9870 hc        1 MOL      0.003477
     40 H16         4.8310   -3.5150    0.5890 hc        1 MOL      0.003477
     41 N4          5.9110   -3.6250   -2.1010 n         1 MOL     -0.304151
     42 C14         5.2750   -3.5800   -3.4240 c3        1 MOL     -0.305523
     43 C15         3.8000   -3.3240   -3.4720 c         1 MOL      0.506369
     44 O9          3.2290   -3.0520   -4.5850 o         1 MOL     -0.527320
     45 H17         5.8870   -4.5070   -1.6180 hn        1 MOL      0.288886
     46 H18         5.4490   -4.5520   -3.8880 h1        1 MOL      0.150829
     47 H19         5.7730   -2.8490   -4.0640 h1        1 MOL      0.150829
     48 N5          3.2110   -3.2320   -2.2640 n         1 MOL     -0.212885
     49 C16         1.9370   -2.5370   -2.1700 c3        1 MOL     -0.420084
     50 C17         1.9090   -1.0020   -2.3700 c         1 MOL      0.805834
     51 O10         2.9940   -0.4380   -2.2620 o         1 MOL     -0.599678
     52 C18         1.4540   -2.7900   -0.7600 c3        1 MOL     -0.026142
     53 C19         1.2580   -4.2420   -0.4280 c         1 MOL      0.643588
     54 N6          0.3510   -4.9340   -1.0510 n         1 MOL     -0.672079
     55 O11         2.0510   -4.8160    0.2550 o         1 MOL     -0.599569
     56 H20         3.6830   -3.3580   -1.3780 hn        1 MOL      0.238637
     57 H21         1.2310   -2.8920   -2.9210 h1        1 MOL      0.172848
     58 H22         0.4810   -2.3530   -0.5380 hc        1 MOL      0.005435
     59 H23         2.1730   -2.3590   -0.0730 hc        1 MOL      0.005435
     60 H24        -0.3070   -4.4620   -1.6490 hn        1 MOL      0.322339
     61 H25         0.2810   -5.9370   -0.9270 hn        1 MOL      0.322339
     62 N7          0.7300   -0.3970   -2.4260 n         1 MOL     -0.557520
     63 C20         0.4860    0.9790   -2.0660 c3        1 MOL      0.218335
     64 C21         0.7710    1.9720   -3.2510 c         1 MOL      0.524625
     65 O12         1.0510    1.5730   -4.3690 o         1 MOL     -0.514245
     66 H26        -0.0590   -1.0250   -2.4840 hn        1 MOL      0.303367
     67 H27         1.1250    1.1860   -1.2080 h1        1 MOL      0.040245
     68 H28        -0.5830    1.0560   -1.8390 h1        1 MOL      0.040245
     69 N8          0.7230    3.2810   -3.0520 n         1 MOL     -0.525314
     70 C22         0.3130    4.0040   -1.8230 c3        1 MOL     -0.107427
     71 C23        -1.0120    3.4680   -1.2060 c         1 MOL      0.478431
     72 O13        -1.8990    2.9750   -1.9760 o         1 MOL     -0.502595
     73 C24         0.1580    5.4600   -2.1190 c3        1 MOL      0.379946
     74 C25        -0.4080    6.3160   -0.9280 c3        1 MOL     -0.292857
     75 O14         1.4100    6.0100   -2.3980 oh        1 MOL     -0.634184
     76 H29         0.8950    3.8940   -3.8370 hn        1 MOL      0.301693
     77 H30         1.1430    3.9240   -1.1060 h1        1 MOL      0.110405
     78 H31        -0.5050    5.5800   -2.9740 h1        1 MOL      0.011201
     79 H32         1.8030    5.5540   -3.1430 ho        1 MOL      0.373053
     80 H33        -0.0530    6.0030    0.0530 hc        1 MOL      0.098647
     81 H34        -0.2030    7.3590   -1.1390 hc        1 MOL      0.098647
     82 H35        -1.5000    6.2490   -0.9210 hc        1 MOL      0.098647
     83 N9         -1.0580    3.4110    0.1460 n         1 MOL     -0.502727
     84 C26        -2.3150    3.0840    0.8770 c3        1 MOL      0.018564
     85 C27        -3.1260    4.3730    1.1400 c         1 MOL      0.639849
     86 O15        -2.5580    5.2770    1.7860 o         1 MOL     -0.600550
     87 C28        -1.9360    2.2920    2.0660 c3        1 MOL      0.038825
     88 C29        -1.2860    0.8990    1.8130 c3        1 MOL     -0.028246
     89 C30        -3.1500    2.0850    3.0320 c3        1 MOL     -0.276847
     90 C31        -2.1670   -0.0490    0.9680 c3        1 MOL     -0.476470
     91 H36        -0.2620    3.7940    0.6400 hn        1 MOL      0.288351
     92 H37        -2.8770    2.4440    0.1990 h1        1 MOL      0.090210
     93 H38        -1.1610    2.8010    2.6400 hc        1 MOL      0.039080
     94 H39        -1.0730    0.5310    2.8160 hc        1 MOL      0.015591
     95 H40        -0.3140    1.0530    1.3480 hc        1 MOL      0.015591
     96 H41        -4.0170    1.6420    2.5310 hc        1 MOL      0.078777
     97 H42        -2.8830    1.3950    3.8290 hc        1 MOL      0.078777
     98 H43        -3.3610    3.0700    3.4370 hc        1 MOL      0.078777
     99 H44        -2.3400    0.3870   -0.0180 hc        1 MOL      0.167908
    100 H45        -1.5920   -0.9680    0.9750 hc        1 MOL      0.167908
    101 H46        -3.1220   -0.2680    1.4490 hc        1 MOL      0.167908
    102 N10        -4.3630    4.5990    0.6430 n         1 MOL     -0.573684
    103 C32        -5.1990    3.7600   -0.2770 c3        1 MOL      0.281549
    104 C33        -6.1550    2.7880    0.4410 c         1 MOL      0.604765
    105 O16        -6.5030    2.8930    1.6310 o         1 MOL     -0.561435
    106 C34        -5.8630    4.5900   -1.3580 c3        1 MOL     -0.151939
    107 C35        -6.8370    5.6060   -0.8880 c         1 MOL      0.763351
    108 O17        -7.5970    6.1350   -1.6830 o         1 MOL     -0.735804
    109 O18        -6.7680    6.0220    0.2800 o         1 MOL     -0.735804
    110 H47        -4.8760    5.3890    1.0090 hn        1 MOL      0.319396
    111 H48        -4.5330    3.1480   -0.8830 h1        1 MOL     -0.010093
    112 H49        -6.3890    3.8660   -1.9810 hc        1 MOL      0.009163
    113 H50        -5.1370    5.0770   -2.0140 hc        1 MOL      0.009163
    114 N11        -6.7490    1.8220   -0.3340 n         1 MOL     -0.914435
    115 C36        -7.5740    0.6310    0.0410 c3        1 MOL      0.813265
    116 C37        -7.7680   -0.3150   -1.1850 c         1 MOL      0.153702
    117 O19        -8.1180    0.2340   -2.2130 o         1 MOL     -0.533455
    118 C38        -8.9520    0.9930    0.5970 c3        1 MOL     -0.281948
    119 C39        -9.4660   -0.1470    1.4500 ca        1 MOL      0.017903
    120 C40       -10.3690   -1.1040    0.9100 ca        1 MOL     -0.118418
    121 C41        -9.0430   -0.2700    2.8070 ca        1 MOL     -0.118418
    122 C42       -10.8490   -2.1210    1.7210 ca        1 MOL     -0.132749
    123 C43        -9.4730   -1.2950    3.6080 ca        1 MOL     -0.132749
    124 C44       -10.3770   -2.2570    3.0870 ca        1 MOL     -0.138794
    125 H51        -6.6060    1.9590   -1.3240 hn        1 MOL      0.399321
    126 H52        -7.0750    0.0930    0.8420 h1        1 MOL     -0.084338
    127 H53        -9.6470    1.2240   -0.2020 hc        1 MOL      0.103130
    128 H54        -8.8770    1.8300    1.2780 hc        1 MOL      0.103130
    129 H55       -10.6960   -1.0360   -0.1270 ha        1 MOL      0.122308
    130 H56        -8.3390    0.4390    3.2290 ha        1 MOL      0.122308
    131 H57       -11.4950   -2.8860    1.3190 ha        1 MOL      0.104626
    132 H58        -9.0840   -1.3660    4.6060 ha        1 MOL      0.104626
    133 H59       -10.6960   -3.0610    3.7290 ha        1 MOL      0.101891
    134 N12        -7.7520   -1.6070   -1.1040 n         1 MOL      0.096525
    135 C45        -7.2620   -2.4500    0.0380 c3        1 MOL      0.098667
    136 C46        -5.7790   -2.3150    0.3000 c         1 MOL      0.285246
    137 O20        -5.2170   -1.3140   -0.0900 o         1 MOL     -0.482924
    138 C47        -7.5710   -3.9450   -0.3230 c3        1 MOL      0.111595
    139 C48        -8.6750   -3.7900   -1.4050 c3        1 MOL     -0.216298
    140 C49        -8.2650   -2.5200   -2.1090 c3        1 MOL     -0.245477
    141 H60        -7.7460   -2.1720    0.9750 h1        1 MOL     -0.048591
    142 H61        -6.7050   -4.5180   -0.6640 hc        1 MOL     -0.009612
    143 H62        -7.9940   -4.5240    0.4990 hc        1 MOL     -0.009612
    144 H63        -8.6010   -4.6410   -2.0720 hc        1 MOL      0.073664
    145 H64        -9.5800   -3.4370   -0.9120 hc        1 MOL      0.073664
    146 H65        -7.4510   -2.7870   -2.7930 h1        1 MOL      0.141128
    147 H66        -9.1380   -2.2240   -2.6960 h1        1 MOL      0.141128
    148 N13        -5.1200   -3.3350    0.9150 n         1 MOL     -0.169412
    149 C50        -3.7570   -3.3540    1.3620 c3        1 MOL      0.428343
    150 C51        -3.6200   -4.4570    2.4790 c         1 MOL      0.271002
    151 O21        -3.1750   -5.5920    2.1840 o         1 MOL     -0.494754
    152 C52        -2.7620   -3.4540    0.2630 c3        1 MOL     -0.041021
    153 C53        -2.9230   -4.5990   -0.6370 c3        1 MOL     -0.134342
    154 C54        -2.7190   -4.2470   -2.0670 c         1 MOL      0.714571
    155 O22        -3.5070   -4.5820   -2.9920 o         1 MOL     -0.702698
    156 O23        -1.7230   -3.5780   -2.4110 o         1 MOL     -0.702698
    157 H67        -5.6960   -4.0890    1.2590 hn        1 MOL      0.158713
    158 H68        -3.5130   -2.4280    1.8760 h1        1 MOL     -0.074336
    159 H69        -1.7450   -3.3580    0.6190 hc        1 MOL      0.018072
    160 H70        -2.8840   -2.5370   -0.3210 hc        1 MOL      0.018072
    161 H71        -3.9340   -5.0010   -0.5600 hc        1 MOL     -0.013417
    162 H72        -2.1760   -5.3390   -0.3440 hc        1 MOL     -0.013417
    163 N14        -4.0610   -4.2930    3.7710 n         1 MOL     -0.377560
    164 C55        -4.9080   -3.2170    4.3320 c3        1 MOL     -0.043633
    165 H73        -5.8560   -3.6380    4.6660 h1        1 MOL      0.056262
    166 H74        -4.3980   -2.7560    5.1780 h1        1 MOL      0.056262
    167 H75        -5.0950   -2.4640    3.5670 h1        1 MOL      0.056262
    168 H76        -3.9370   -5.1300    4.3220 hn        1 MOL      0.287946
    169 Ca1         5.2520    0.9340   -1.3800 Ca        1 MOL      1.778808
    170 O24         3.3170    1.6140    0.1610 oh        1 MOL     -0.836964
    171 H77         2.8580    0.9010    0.5910 ho        1 MOL      0.413700
    172 H78         3.3120    2.3260    0.8090 ho        1 MOL      0.413700
    173 O25         4.6090    3.4220   -2.0840 oh        1 MOL     -0.836964
    174 H79         5.2000    3.9280   -2.6390 ho        1 MOL      0.413700
    175 H80         4.1860    4.0760   -1.5300 ho        1 MOL      0.413700
    176 O26         7.2310    1.9400   -2.8870 oh        1 MOL     -0.836964
    177 H81         7.7580    1.6380   -3.6320 ho        1 MOL      0.413700
    178 H82         7.7930    2.5710   -2.4370 ho        1 MOL      0.413700
    179 O27         4.8160    0.4890   -4.0920 oh        1 MOL     -0.836964
    180 H83         5.6230    0.2770   -4.5680 ho        1 MOL      0.413700
    181 H84         4.1150    0.2000   -4.6840 ho        1 MOL      0.413700
@<TRIPOS>BOND
     1    1    2 1   
     2    1    4 1   
     3    1    5 1   
     4    1    6 1   
     5    2    3 2   
     6    2    7 1   
     7    7    8 1   
     8    7   15 1   
     9    8    9 1   
    10    8   11 1   
    11    8   16 1   
    12    9   10 2   
    13    9   19 1   
    14   11   12 1   
    15   11   17 1   
    16   11   18 1   
    17   12   13 1   
    18   12   14 1   
    19   19   20 1   
    20   19   24 1   
    21   20   21 1   
    22   20   23 1   
    23   20   25 1   
    24   21   22 2   
    25   21   29 1   
    26   23   26 1   
    27   23   27 1   
    28   23   28 1   
    29   29   30 1   
    30   29   37 1   
    31   30   31 1   
    32   30   33 1   
    33   30   38 1   
    34   31   32 2   
    35   31   41 1   
    36   33   34 1   
    37   33   39 1   
    38   33   40 1   
    39   34   35 1   
    40   34   36 1   
    41   41   42 1   
    42   41   45 1   
    43   42   43 1   
    44   42   46 1   
    45   42   47 1   
    46   43   44 2   
    47   43   48 1   
    48   48   49 1   
    49   48   56 1   
    50   49   50 1   
    51   49   52 1   
    52   49   57 1   
    53   50   51 2   
    54   50   62 1   
    55   52   53 1   
    56   52   58 1   
    57   52   59 1   
    58   53   54 1   
    59   53   55 2   
    60   54   60 1   
    61   54   61 1   
    62   62   63 1   
    63   62   66 1   
    64   63   64 1   
    65   63   67 1   
    66   63   68 1   
    67   64   65 2   
    68   64   69 1   
    69   69   70 1   
    70   69   76 1   
    71   70   71 1   
    72   70   73 1   
    73   70   77 1   
    74   71   72 2   
    75   71   83 1   
    76   73   74 1   
    77   73   75 1   
    78   73   78 1   
    79   74   80 1   
    80   74   81 1   
    81   74   82 1   
    82   75   79 1   
    83   83   84 1   
    84   83   91 1   
    85   84   85 1   
    86   84   87 1   
    87   84   92 1   
    88   85   86 2   
    89   85  102 1   
    90   87   88 1   
    91   87   89 1   
    92   87   93 1   
    93   88   90 1   
    94   88   94 1   
    95   88   95 1   
    96   89   96 1   
    97   89   97 1   
    98   89   98 1   
    99   90   99 1   
   100   90  100 1   
   101   90  101 1   
   102  102  103 1   
   103  102  110 1   
   104  103  104 1   
   105  103  106 1   
   106  103  111 1   
   107  104  105 2   
   108  104  114 1   
   109  106  107 1   
   110  106  112 1   
   111  106  113 1   
   112  107  108 1   
   113  107  109 1   
   114  114  115 1   
   115  114  125 1   
   116  115  116 1   
   117  115  118 1   
   118  115  126 1   
   119  116  117 2   
   120  116  134 1   
   121  118  119 1   
   122  118  127 1   
   123  118  128 1   
   124  119  120 ar  
   125  119  121 ar  
   126  120  122 ar  
   127  120  129 1   
   128  121  123 ar  
   129  121  130 1   
   130  122  124 ar  
   131  122  131 1   
   132  123  124 ar  
   133  123  132 1   
   134  124  133 1   
   135  134  135 1   
   136  134  140 1   
   137  135  136 1   
   138  135  138 1   
   139  135  141 1   
   140  136  137 2   
   141  136  148 1   
   142  138  139 1   
   143  138  142 1   
   144  138  143 1   
   145  139  140 1   
   146  139  144 1   
   147  139  145 1   
   148  140  146 1   
   149  140  147 1   
   150  148  149 1   
   151  148  157 1   
   152  149  150 1   
   153  149  152 1   
   154  149  158 1   
   155  150  151 2   
   156  150  163 1   
   157  152  153 1   
   158  152  159 1   
   159  152  160 1   
   160  153  154 1   
   161  153  161 1   
   162  153  162 1   
   163  154  155 1   
   164  154  156 1   
   165  163  164 1   
   166  163  168 1   
   167  164  165 1   
   168  164  166 1   
   169  164  167 1   
   170  170  171 1   
   171  170  172 1   
   172  173  174 1   
   173  173  175 1   
   174  176  177 1   
   175  176  178 1   
   176  179  180 1   
   177  179  181 1   
@<TRIPOS>SUBSTRUCTURE
     1 MOL         1 TEMP              0 ****  ****    0 ROOT
