@<TRIPOS>MOLECULE
MOL
  191   184     1     0     0
SMALL
resp


@<TRIPOS>ATOM
      1 C1          4.1280   -0.5320    6.0880 c3        1 MOL     -0.412678
      2 C2          3.3140   -0.3540    4.7960 c         1 MOL      0.753612
      3 O1          2.2480    0.2510    4.7930 o         1 MOL     -0.616249
      4 H1          4.2440    0.4340    6.5800 hc        1 MOL      0.107681
      5 H2          3.6070   -1.2180    6.7550 hc        1 MOL      0.107681
      6 H3          5.1120   -0.9360    5.8460 hc        1 MOL      0.107681
      7 N1          3.7600   -0.9610    3.7090 n         1 MOL     -0.586609
      8 C3          3.0550   -0.8580    2.4070 c3        1 MOL      0.017702
      9 C4          2.8700   -2.2350    1.6820 c         1 MOL      0.295199
     10 O2          2.1560   -2.3250    0.6690 o         1 MOL     -0.380571
     11 C5          3.8330    0.0940    1.4280 c3        1 MOL     -0.102641
     12 C6          5.3150   -0.2340    1.1900 c         1 MOL      0.606833
     13 O3          5.7630   -1.3970    0.9200 o         1 MOL     -0.615085
     14 O4          6.1630    0.6670    1.2930 o         1 MOL     -0.615085
     15 H4          4.6500   -1.4410    3.7670 hn        1 MOL      0.347233
     16 H5          2.0760   -0.3870    2.5120 h1        1 MOL      0.148957
     17 H6          3.6770    1.0910    1.8300 hc        1 MOL      0.038353
     18 H7          3.3480    0.1840    0.4610 hc        1 MOL      0.038353
     19 N2          3.5220   -3.2930    2.2040 n         1 MOL     -0.360528
     20 C7          3.4450   -4.7090    1.7020 c3        1 MOL      0.264014
     21 C8          4.3590   -4.9190    0.4130 c         1 MOL      0.267428
     22 O5          5.3910   -5.6530    0.5520 o         1 MOL     -0.517935
     23 C9          3.7510   -5.7830    2.8120 c3        1 MOL      0.009804
     24 C10         3.1600   -5.6940    4.1730 c3        1 MOL     -0.103935
     25 C11         1.6550   -6.0460    4.2670 c3        1 MOL     -0.049749
     26 C12         1.0530   -6.2250    5.6260 c3        1 MOL      0.073452
     27 N3          1.5440   -7.4500    6.3810 n4        1 MOL     -0.272407
     28 H8          4.0570   -3.0810    3.0330 hn        1 MOL      0.255662
     29 H9          2.4240   -4.8810    1.3610 h1        1 MOL     -0.080658
     30 H10         4.8360   -5.9560    2.8280 hc        1 MOL      0.037715
     31 H11         3.4530   -6.7590    2.4170 hc        1 MOL      0.037715
     32 H12         3.3360   -4.6570    4.4290 hc        1 MOL      0.010670
     33 H13         3.6680   -6.4390    4.7760 hc        1 MOL      0.010670
     34 H14         1.4060   -6.9700    3.7420 hc        1 MOL      0.063586
     35 H15         1.1110   -5.2400    3.7740 hc        1 MOL      0.063586
     36 H16        -0.0310   -6.1870    5.5460 hx        1 MOL      0.061193
     37 H17         1.4360   -5.3520    6.1560 hx        1 MOL      0.061193
     38 H18         0.9100   -7.7790    7.0910 hn        1 MOL      0.289857
     39 H19         1.7840   -8.2280    5.7940 hn        1 MOL      0.289857
     40 H20         2.3000   -7.1630    6.9940 hn        1 MOL      0.289857
     41 N4          4.0360   -4.2170   -0.6470 n         1 MOL      0.062540
     42 C13         4.6390   -4.4050   -1.9630 c3        1 MOL     -0.102567
     43 C14         5.2710   -3.1910   -2.5420 c         1 MOL      0.650140
     44 O6          5.8950   -3.2890   -3.5600 o         1 MOL     -0.552786
     45 C15         3.4720   -4.9990   -2.8500 c3        1 MOL     -0.171350
     46 C16         2.2570   -4.1010   -3.1310 c         1 MOL      0.712276
     47 O7          2.2660   -2.9460   -2.6620 o         1 MOL     -0.659705
     48 O8          1.3110   -4.4750   -3.8120 o         1 MOL     -0.659705
     49 H21         3.3310   -3.5050   -0.5380 hn        1 MOL     -0.034754
     50 H22         5.4320   -5.1500   -1.8730 h1        1 MOL      0.116013
     51 H23         3.0870   -5.9090   -2.3980 hc        1 MOL      0.048671
     52 H24         3.9070   -5.3030   -3.8010 hc        1 MOL      0.048671
     53 N5          5.1850   -2.0750   -1.8790 n         1 MOL     -0.514232
     54 C17         5.5560   -0.8150   -2.3600 c3        1 MOL     -0.052847
     55 C18         7.0270   -0.4330   -2.4260 c         1 MOL      0.709964
     56 O9          7.9670   -1.2140   -2.2580 o         1 MOL     -0.546199
     57 H25         4.7400   -2.0900   -0.9700 hn        1 MOL      0.314689
     58 H26         5.0830   -0.0300   -1.7680 h1        1 MOL      0.062682
     59 H27         5.2960   -0.6860   -3.4100 h1        1 MOL      0.062682
     60 N6          7.3610    0.7630   -2.8480 n         1 MOL     -0.666204
     61 C19         6.4900    1.9410   -3.0170 c3        1 MOL      0.378312
     62 C20         6.7360    2.7620   -1.7790 c         1 MOL      0.580231
     63 O10         7.8300    3.1790   -1.5940 o         1 MOL     -0.543185
     64 C21         6.7440    2.6510   -4.2590 c3        1 MOL     -0.379363
     65 C22         5.7640    3.8110   -4.4860 c         1 MOL      0.752864
     66 N7          4.9050    3.5650   -5.4430 n         1 MOL     -0.774829
     67 O11         5.7570    4.8080   -3.7950 o         1 MOL     -0.575295
     68 H28         8.3350    1.0000   -2.8150 hn        1 MOL      0.338727
     69 H29         5.4420    1.6560   -3.1360 h1        1 MOL     -0.054340
     70 H30         6.5910    1.9140   -5.0550 hc        1 MOL      0.096841
     71 H31         7.7350    3.1030   -4.2560 hc        1 MOL      0.096841
     72 H32         4.8370    2.7000   -5.9550 hn        1 MOL      0.339076
     73 H33         3.9950    3.9930   -5.3050 hn        1 MOL      0.339076
     74 N8          5.7000    2.9170   -0.9170 n         1 MOL     -0.413890
     75 C23         4.3560    2.6910   -1.1070 c3        1 MOL     -0.085518
     76 C24         3.5780    3.4750   -0.1240 c         1 MOL      0.735258
     77 O12         4.1260    3.9710    0.8830 o         1 MOL     -0.522137
     78 H34         5.9190    3.3910   -0.0560 hn        1 MOL      0.282447
     79 H35         4.1780    1.6410   -0.8650 h1        1 MOL      0.019760
     80 H36         3.9800    2.8650   -2.1150 h1        1 MOL      0.019760
     81 N9          2.3040    3.5470   -0.4810 n         1 MOL     -0.634462
     82 C25         1.2880    4.2390    0.3540 c3        1 MOL      0.059434
     83 C26        -0.0380    3.5530    0.3830 c         1 MOL      0.737407
     84 O13        -0.3420    2.8870   -0.5710 o         1 MOL     -0.540462
     85 C27         1.2530    5.7660   -0.0480 c3        1 MOL     -0.196675
     86 C28         0.6170    6.7040    0.9770 ca        1 MOL     -0.009966
     87 C29        -0.5700    7.4770    0.7650 ca        1 MOL     -0.079094
     88 C30         1.0350    6.6560    2.2810 ca        1 MOL     -0.079094
     89 C31        -1.2250    8.2130    1.7250 ca        1 MOL     -0.308456
     90 C32         0.4620    7.4490    3.3150 ca        1 MOL     -0.308456
     91 C33        -0.6580    8.2770    3.0400 ca        1 MOL      0.386233
     92 O14        -1.1980    9.0940    3.9780 oh        1 MOL     -0.486461
     93 H37         1.9150    2.8240   -1.0740 hn        1 MOL      0.325914
     94 H38         1.6690    4.1900    1.3680 h1        1 MOL      0.024417
     95 H39         0.7540    5.9020   -1.0030 hc        1 MOL      0.118624
     96 H40         2.2890    6.1110   -0.0780 hc        1 MOL      0.118624
     97 H41        -0.9630    7.5190   -0.2460 ha        1 MOL      0.124151
     98 H42         1.8680    6.0300    2.5680 ha        1 MOL      0.124151
     99 H43        -2.0670    8.8310    1.4520 ha        1 MOL      0.157394
    100 H44         0.9740    7.4140    4.2580 ha        1 MOL      0.157394
    101 H45        -0.9540    8.8080    4.8600 ho        1 MOL      0.364826
    102 N10        -0.8440    3.7370    1.4190 n         1 MOL     -0.602325
    103 C34        -2.2440    3.3200    1.5930 c3        1 MOL     -0.177029
    104 C35        -3.0410    3.6820    0.2670 c         1 MOL      0.593779
    105 O15        -2.8780    4.7140   -0.3070 o         1 MOL     -0.511940
    106 C36        -2.8400    3.9450    2.8930 c3        1 MOL      0.312457
    107 C37        -2.6030    3.0780    4.0720 c3        1 MOL     -0.065154
    108 C38        -2.4110    5.3570    3.1160 c3        1 MOL      0.055119
    109 C39        -3.3840    3.2680    5.3920 c3        1 MOL     -0.155757
    110 H46        -0.5460    4.3900    2.1350 hn        1 MOL      0.319427
    111 H47        -2.2410    2.2310    1.6270 h1        1 MOL      0.114413
    112 H48        -3.9160    4.0250    2.7520 hc        1 MOL     -0.048969
    113 H49        -1.5190    3.1430    4.2100 hc        1 MOL      0.008062
    114 H50        -2.8470    2.0740    3.7390 hc        1 MOL      0.008062
    115 H51        -1.3480    5.4460    3.3740 hc        1 MOL     -0.020895
    116 H52        -2.5570    5.9790    2.2340 hc        1 MOL     -0.020895
    117 H53        -2.9580    5.8020    3.9480 hc        1 MOL     -0.020895
    118 H54        -4.4480    3.0820    5.2500 hc        1 MOL      0.048660
    119 H55        -3.0860    2.5910    6.1950 hc        1 MOL      0.048660
    120 H56        -3.2800    4.3040    5.7190 hc        1 MOL      0.048660
    121 N11        -3.9500    2.8080   -0.1220 n         1 MOL     -0.390911
    122 C40        -4.9050    3.0220   -1.1910 c3        1 MOL      0.060483
    123 C41        -5.3060    1.6780   -1.8920 c         1 MOL      0.459596
    124 O16        -5.3070    0.6050   -1.2250 o         1 MOL     -0.381909
    125 C42        -6.0360    3.8120   -0.7410 c3        1 MOL     -0.005346
    126 O17        -6.6690    3.1570    0.3980 oh        1 MOL     -0.612351
    127 H57        -4.0930    1.9990    0.4550 hn        1 MOL      0.244534
    128 H58        -4.6050    3.6950   -1.9910 h1        1 MOL      0.064280
    129 H59        -6.8070    4.1170   -1.4460 h1        1 MOL      0.092770
    130 H60        -5.7220    4.8170   -0.4570 h1        1 MOL      0.092770
    131 H61        -7.4320    3.6510    0.7260 ho        1 MOL      0.404555
    132 N12        -5.4760    1.5890   -3.2360 n         1 MOL     -0.579295
    133 C43        -5.6180    0.3480   -4.0560 c3        1 MOL      0.141152
    134 C44        -6.7330   -0.5930   -3.5510 c         1 MOL      0.340297
    135 O18        -6.5800   -1.8270   -3.6720 o         1 MOL     -0.376169
    136 C45        -4.1970   -0.2480   -4.1250 c3        1 MOL     -0.050732
    137 H62        -5.3420    2.3910   -3.8540 hn        1 MOL      0.318832
    138 H63        -5.8730    0.5900   -5.0910 h1        1 MOL      0.077136
    139 H64        -3.7760   -0.4540   -3.1500 hc        1 MOL      0.027570
    140 H65        -4.1740   -1.1580   -4.7120 hc        1 MOL      0.027570
    141 H66        -3.5560    0.4920   -4.6260 hc        1 MOL      0.027570
    142 N13        -7.8620   -0.0350   -3.0160 n         1 MOL     -0.435811
    143 C46        -8.9890   -0.8660   -2.5880 c3        1 MOL      0.229060
    144 C47        -8.6160   -2.1310   -1.7370 c         1 MOL      0.447819
    145 O19        -9.1030   -3.2500   -2.0570 o         1 MOL     -0.491146
    146 C48        -9.8420   -1.0740   -3.8660 c3        1 MOL     -0.473368
    147 H67        -8.0560    0.9560   -3.0880 hn        1 MOL      0.287612
    148 H68        -9.7000   -0.3550   -1.9420 h1        1 MOL      0.025240
    149 H69        -9.4750   -1.8680   -4.5160 hc        1 MOL      0.134440
    150 H70       -10.8660   -1.3770   -3.6290 hc        1 MOL      0.134440
    151 H71        -9.8770   -0.0700   -4.2800 hc        1 MOL      0.134440
    152 N14        -7.6950   -2.0080   -0.7900 n         1 MOL     -0.451584
    153 C49        -7.1630   -3.1320    0.0180 c3        1 MOL      0.039388
    154 C50        -7.8800   -3.3590    1.3500 c         1 MOL      0.560220
    155 O20        -8.4460   -4.4070    1.5810 o         1 MOL     -0.536369
    156 C51        -5.6570   -3.0090    0.2590 c3        1 MOL      0.154377
    157 C52        -4.8250   -2.9650   -1.0250 c3        1 MOL     -0.122426
    158 C53        -3.3780   -3.3390   -0.7150 c         1 MOL      0.602454
    159 O21        -3.0500   -4.5250   -0.7240 o         1 MOL     -0.668904
    160 O22        -2.5270   -2.5010   -0.2530 o         1 MOL     -0.668904
    161 H72        -7.3190   -1.0800   -0.6500 hn        1 MOL      0.213549
    162 H73        -7.4000   -4.0270   -0.5510 h1        1 MOL      0.107144
    163 H74        -5.4600   -3.8300    0.9510 hc        1 MOL     -0.048807
    164 H75        -5.4220   -2.0930    0.8110 hc        1 MOL     -0.048807
    165 H76        -4.8800   -1.9740   -1.4760 hc        1 MOL      0.050440
    166 H77        -5.1980   -3.6570   -1.7820 hc        1 MOL      0.050440
    167 N15        -7.8060   -2.3820    2.2440 n         1 MOL     -0.400381
    168 C54        -8.4700   -2.4370    3.5580 c3        1 MOL     -0.223103
    169 H78        -8.6180   -3.4770    3.8470 h1        1 MOL      0.112913
    170 H79        -7.8460   -1.9390    4.3020 h1        1 MOL      0.112913
    171 H80        -9.4360   -1.9350    3.5000 h1        1 MOL      0.112913
    172 H81        -7.3400   -1.5420    1.9240 hn        1 MOL      0.293749
    173 Ca1         0.0050   -1.8300   -0.4860 Ca        1 MOL      1.760221
    174 O23        -0.6560   -1.8910    2.1920 oh        1 MOL     -0.867472
    175 H82        -1.3720   -1.4460    2.6350 ho        1 MOL      0.403280
    176 H83        -0.1560   -2.3020    2.8900 ho        1 MOL      0.403280
    177 O24        -0.3960   -4.4570   -0.1170 oh        1 MOL     -0.867472
    178 H84        -0.1150   -5.2550    0.3390 ho        1 MOL      0.403280
    179 H85        -1.3560   -4.5110   -0.1060 ho        1 MOL      0.403280
    180 O25        -1.2000    0.3170   -1.4230 oh        1 MOL     -0.867472
    181 H86        -1.4940    1.1260   -1.0050 ho        1 MOL      0.403280
    182 H87        -1.3360    0.4790   -2.3650 ho        1 MOL      0.403280
    183 O26         1.8380   -0.4510   -2.0210 oh        1 MOL     -0.867472
    184 H88         2.2440   -1.1890   -2.4620 ho        1 MOL      0.403280
    185 H89         1.9030    0.2780   -2.6450 ho        1 MOL      0.403280
    186 O27        -0.4250   -2.7690   -3.0020 oh        1 MOL     -0.867472
    187 H90        -0.6500   -2.4160   -3.8590 ho        1 MOL      0.403280
    188 H91         0.2770   -3.3950   -3.1740 ho        1 MOL      0.403280
    189 O28         0.2960    0.5670    0.7370 oh        1 MOL     -0.867472
    190 H92         0.1360    1.2810    0.1240 ho        1 MOL      0.403280
    191 H93         0.3070    0.9900    1.5970 ho        1 MOL      0.403280
@<TRIPOS>BOND
     1    1    2 1   
     2    1    4 1   
     3    1    5 1   
     4    1    6 1   
     5    2    3 2   
     6    2    7 1   
     7    7    8 1   
     8    7   15 1   
     9    8    9 1   
    10    8   11 1   
    11    8   16 1   
    12    9   10 2   
    13    9   19 1   
    14   11   12 1   
    15   11   17 1   
    16   11   18 1   
    17   12   13 1   
    18   12   14 1   
    19   19   20 1   
    20   19   28 1   
    21   20   21 1   
    22   20   23 1   
    23   20   29 1   
    24   21   22 2   
    25   21   41 1   
    26   23   24 1   
    27   23   30 1   
    28   23   31 1   
    29   24   25 1   
    30   24   32 1   
    31   24   33 1   
    32   25   26 1   
    33   25   34 1   
    34   25   35 1   
    35   26   27 1   
    36   26   36 1   
    37   26   37 1   
    38   27   38 1   
    39   27   39 1   
    40   27   40 1   
    41   41   42 1   
    42   41   49 1   
    43   42   43 1   
    44   42   45 1   
    45   42   50 1   
    46   43   44 2   
    47   43   53 1   
    48   45   46 1   
    49   45   51 1   
    50   45   52 1   
    51   46   47 1   
    52   46   48 1   
    53   53   54 1   
    54   53   57 1   
    55   54   55 1   
    56   54   58 1   
    57   54   59 1   
    58   55   56 2   
    59   55   60 1   
    60   60   61 1   
    61   60   68 1   
    62   61   62 1   
    63   61   64 1   
    64   61   69 1   
    65   62   63 2   
    66   62   74 1   
    67   64   65 1   
    68   64   70 1   
    69   64   71 1   
    70   65   66 1   
    71   65   67 2   
    72   66   72 1   
    73   66   73 1   
    74   74   75 1   
    75   74   78 1   
    76   75   76 1   
    77   75   79 1   
    78   75   80 1   
    79   76   77 2   
    80   76   81 1   
    81   81   82 1   
    82   81   93 1   
    83   82   83 1   
    84   82   85 1   
    85   82   94 1   
    86   83   84 2   
    87   83  102 1   
    88   85   86 1   
    89   85   95 1   
    90   85   96 1   
    91   86   87 ar  
    92   86   88 ar  
    93   87   89 ar  
    94   87   97 1   
    95   88   90 ar  
    96   88   98 1   
    97   89   91 ar  
    98   89   99 1   
    99   90   91 ar  
   100   90  100 1   
   101   91   92 1   
   102   92  101 1   
   103  102  103 1   
   104  102  110 1   
   105  103  104 1   
   106  103  106 1   
   107  103  111 1   
   108  104  105 2   
   109  104  121 1   
   110  106  107 1   
   111  106  108 1   
   112  106  112 1   
   113  107  109 1   
   114  107  113 1   
   115  107  114 1   
   116  108  115 1   
   117  108  116 1   
   118  108  117 1   
   119  109  118 1   
   120  109  119 1   
   121  109  120 1   
   122  121  122 1   
   123  121  127 1   
   124  122  123 1   
   125  122  125 1   
   126  122  128 1   
   127  123  124 2   
   128  123  132 1   
   129  125  126 1   
   130  125  129 1   
   131  125  130 1   
   132  126  131 1   
   133  132  133 1   
   134  132  137 1   
   135  133  134 1   
   136  133  136 1   
   137  133  138 1   
   138  134  135 2   
   139  134  142 1   
   140  136  139 1   
   141  136  140 1   
   142  136  141 1   
   143  142  143 1   
   144  142  147 1   
   145  143  144 1   
   146  143  146 1   
   147  143  148 1   
   148  144  145 2   
   149  144  152 1   
   150  146  149 1   
   151  146  150 1   
   152  146  151 1   
   153  152  153 1   
   154  152  161 1   
   155  153  154 1   
   156  153  156 1   
   157  153  162 1   
   158  154  155 2   
   159  154  167 1   
   160  156  157 1   
   161  156  163 1   
   162  156  164 1   
   163  157  158 1   
   164  157  165 1   
   165  157  166 1   
   166  158  159 1   
   167  158  160 1   
   168  167  168 1   
   169  167  172 1   
   170  168  169 1   
   171  168  170 1   
   172  168  171 1   
   173  174  175 1   
   174  174  176 1   
   175  177  178 1   
   176  177  179 1   
   177  180  181 1   
   178  180  182 1   
   179  183  184 1   
   180  183  185 1   
   181  186  187 1   
   182  186  188 1   
   183  189  190 1   
   184  189  191 1   
@<TRIPOS>SUBSTRUCTURE
     1 MOL         1 TEMP              0 ****  ****    0 ROOT
