@<TRIPOS>MOLECULE
MOL
  178   175     1     0     0
SMALL
resp


@<TRIPOS>ATOM
      1 C1          0.3390   -2.6870    4.0950 c3        1 MOL     -0.265016
      2 C2          1.7000   -1.9620    3.9340 c         1 MOL      0.589190
      3 O1          1.6960   -0.7580    3.7270 o         1 MOL     -0.497739
      4 H1          0.5040   -3.7650    4.1320 hc        1 MOL      0.062247
      5 H2         -0.1400   -2.3610    5.0190 hc        1 MOL      0.062247
      6 H3         -0.3040   -2.4470    3.2480 hc        1 MOL      0.062247
      7 N1          2.8150   -2.6810    3.9190 n         1 MOL     -0.441007
      8 C3          4.0640   -2.1450    3.4450 c3        1 MOL      0.018458
      9 C4          4.6340   -2.8900    2.1930 c         1 MOL      0.474340
     10 O2          5.7260   -2.5400    1.7440 o         1 MOL     -0.471348
     11 C5          5.1420   -1.9810    4.5950 c3        1 MOL     -0.173094
     12 C6          5.4470   -3.2660    5.3820 c         1 MOL      0.771908
     13 O3          5.6600   -4.3140    4.7880 o         1 MOL     -0.750858
     14 O4          5.6160   -3.1760    6.6390 o         1 MOL     -0.750858
     15 H4          2.6680   -3.6280    4.2430 hn        1 MOL      0.259085
     16 H5          3.8310   -1.1280    3.1290 h1        1 MOL      0.056664
     17 H6          4.7620   -1.2390    5.2970 hc        1 MOL      0.025547
     18 H7          6.0850   -1.6130    4.1940 hc        1 MOL      0.025547
     19 N2          3.9900   -3.9440    1.7990 n         1 MOL     -0.238347
     20 C7          4.3300   -4.8630    0.7650 c3        1 MOL      0.109682
     21 C8          4.5340   -4.1790   -0.6030 c         1 MOL      0.474307
     22 O5          5.3380   -4.6870   -1.3770 o         1 MOL     -0.505018
     23 C9          5.4100   -5.8690    1.0560 c3        1 MOL     -0.467301
     24 H8          3.0770   -4.0830    2.2270 hn        1 MOL      0.190223
     25 H9          3.3440   -5.3240    0.7370 h1        1 MOL      0.055067
     26 H10         6.4180   -5.5210    0.8480 hc        1 MOL      0.131557
     27 H11         5.3840   -6.1160    2.1120 hc        1 MOL      0.131557
     28 H12         5.2290   -6.7690    0.4580 hc        1 MOL      0.131557
     29 N3          3.8670   -3.0540   -0.7710 n         1 MOL     -0.320242
     30 C10         4.0540   -2.1240   -1.9850 c3        1 MOL      0.119040
     31 C11         5.5190   -1.7400   -2.2900 c         1 MOL      0.344095
     32 O6          5.9500   -1.7460   -3.5020 o         1 MOL     -0.503445
     33 C12         3.3170   -2.6430   -3.1960 c3        1 MOL      0.029456
     34 C13         1.9970   -3.1510   -2.7820 c         1 MOL      0.553629
     35 O7          1.8250   -4.4270   -2.8260 o         1 MOL     -0.700968
     36 O8          1.0650   -2.4060   -2.3990 o         1 MOL     -0.700968
     37 H13         3.2520   -2.8230   -0.0110 hn        1 MOL      0.184407
     38 H14         3.5250   -1.1950   -1.7610 h1        1 MOL      0.057842
     39 H15         3.9270   -3.4620   -3.5850 hc        1 MOL     -0.005619
     40 H16         3.3080   -1.9340   -4.0190 hc        1 MOL     -0.005619
     41 N4          6.2960   -1.6100   -1.1830 n         1 MOL     -0.156134
     42 C14         7.6460   -1.0590   -1.2060 c3        1 MOL     -0.025889
     43 C15         7.7940    0.4420   -1.6310 c         1 MOL      0.500492
     44 O9          8.7320    1.0810   -1.1530 o         1 MOL     -0.578318
     45 H17         5.8900   -1.7520   -0.2690 hn        1 MOL      0.117260
     46 H18         8.2900   -1.6610   -1.8370 h1        1 MOL      0.073382
     47 H19         8.0900   -1.1390   -0.2150 h1        1 MOL      0.073382
     48 N5          6.9360    1.0460   -2.3590 n         1 MOL     -0.264360
     49 C16         6.7100    2.5030   -2.4270 c3        1 MOL      0.018255
     50 C17         5.6390    2.9810   -1.4120 c         1 MOL      0.688839
     51 O10         4.6290    2.3400   -1.2750 o         1 MOL     -0.527687
     52 C18         6.2670    2.7940   -3.8780 c3        1 MOL     -0.349657
     53 C19         7.2980    2.5760   -4.9600 c         1 MOL      0.728661
     54 N6          6.8220    2.1280   -6.0930 n         1 MOL     -0.838439
     55 O11         8.5050    2.7610   -4.8640 o         1 MOL     -0.555674
     56 H20         6.2440    0.4430   -2.7730 hn        1 MOL      0.179218
     57 H21         7.6690    2.9870   -2.2500 h1        1 MOL      0.062867
     58 H22         5.8830    3.8150   -3.9270 hc        1 MOL      0.116674
     59 H23         5.4520    2.1000   -4.0760 hc        1 MOL      0.116674
     60 H24         5.8460    2.1530   -6.3550 hn        1 MOL      0.368777
     61 H25         7.4550    1.6570   -6.7260 hn        1 MOL      0.368777
     62 N7          5.8880    4.0960   -0.6730 n         1 MOL     -0.637514
     63 C20         4.9620    4.6800    0.3290 c3        1 MOL      0.213784
     64 C21         3.9920    5.8410   -0.0040 c         1 MOL      0.368790
     65 O12         3.9190    6.3850   -1.1010 o         1 MOL     -0.484923
     66 H26         6.7890    4.5100   -0.8490 hn        1 MOL      0.322372
     67 H27         5.4830    5.0320    1.2180 h1        1 MOL      0.031432
     68 H28         4.3430    3.8810    0.7350 h1        1 MOL      0.031432
     69 N8          3.0360    6.0620    0.9340 n         1 MOL     -0.187897
     70 C22         1.9000    7.0160    0.8970 c3        1 MOL     -0.300054
     71 C23         0.5340    6.3810    1.0070 c         1 MOL      0.736238
     72 O13        -0.4600    7.1310    0.9950 o         1 MOL     -0.606110
     73 C24         2.0120    8.0780    1.9770 c3        1 MOL      0.403559
     74 C25         2.4350    7.6550    3.3480 c3        1 MOL     -0.100009
     75 O14         3.0160    8.9950    1.6360 oh        1 MOL     -0.610381
     76 H29         3.1830    5.5080    1.7730 hn        1 MOL      0.173580
     77 H30         1.8130    7.5430   -0.0530 h1        1 MOL      0.150607
     78 H31         1.0360    8.5040    2.1650 h1        1 MOL      0.037427
     79 H32         3.7530    8.3780    1.6020 ho        1 MOL      0.354861
     80 H33         2.5040    8.4870    4.0600 hc        1 MOL      0.000468
     81 H34         1.7340    6.8740    3.6430 hc        1 MOL      0.000468
     82 H35         3.4350    7.2340    3.2720 hc        1 MOL      0.000468
     83 N9          0.5730    5.0450    1.0140 n         1 MOL     -0.411711
     84 C26        -0.6430    4.2760    1.1660 c3        1 MOL     -0.165903
     85 C27        -0.6240    2.9610    0.3080 c         1 MOL      0.585775
     86 O15         0.4610    2.5380   -0.1200 o         1 MOL     -0.484776
     87 C28        -0.8620    3.9060    2.6570 c3        1 MOL      0.278391
     88 C29         0.2950    3.1140    3.2600 c3        1 MOL      0.102675
     89 C30        -1.3370    5.1110    3.5640 c3        1 MOL     -0.401436
     90 C31        -0.2480    1.9820    4.0930 c3        1 MOL     -0.142477
     91 H36         1.4140    4.5010    1.0990 hn        1 MOL      0.216975
     92 H37        -1.4640    4.8760    0.7670 h1        1 MOL      0.083659
     93 H38        -1.7500    3.2750    2.7290 hc        1 MOL     -0.028332
     94 H39         0.8120    3.7720    3.9520 hc        1 MOL      0.000640
     95 H40         1.0180    2.7170    2.5500 hc        1 MOL      0.000640
     96 H41        -2.3960    5.3270    3.4600 hc        1 MOL      0.085996
     97 H42        -1.1880    4.9510    4.6280 hc        1 MOL      0.085996
     98 H43        -0.7380    6.0010    3.3900 hc        1 MOL      0.085996
     99 H44        -0.6600    1.2020    3.4580 hc        1 MOL      0.018450
    100 H45         0.4900    1.4360    4.6780 hc        1 MOL      0.018450
    101 H46        -1.0580    2.3570    4.7150 hc        1 MOL      0.018450
    102 N10        -1.7440    2.2780    0.2530 n         1 MOL     -0.573483
    103 C32        -1.9950    1.0030   -0.4860 c3        1 MOL      0.109719
    104 C33        -3.3760    1.1140   -1.2280 c         1 MOL      0.435658
    105 O16        -3.6190    0.3610   -2.1710 o         1 MOL     -0.522460
    106 C34        -1.8620   -0.2380    0.4880 c3        1 MOL      0.140631
    107 C35        -1.6000   -1.6200   -0.1840 c         1 MOL      0.464867
    108 O17        -0.9580   -2.4830    0.4610 o         1 MOL     -0.637344
    109 O18        -1.9710   -1.8920   -1.3790 o         1 MOL     -0.637344
    110 H47        -2.5900    2.7730    0.4800 hn        1 MOL      0.264939
    111 H48        -1.1680    0.9160   -1.1880 h1        1 MOL      0.082847
    112 H49        -2.7330   -0.2860    1.1420 hc        1 MOL     -0.011281
    113 H50        -1.0260   -0.1180    1.1720 hc        1 MOL     -0.011281
    114 N11        -4.3110    1.8850   -0.7620 n         1 MOL     -0.332034
    115 C36        -5.6870    1.8860   -1.3120 c3        1 MOL      0.218636
    116 C37        -6.5630    0.8250   -0.6390 c         1 MOL      0.121845
    117 O19        -6.6790    0.8940    0.5510 o         1 MOL     -0.421309
    118 C38        -6.3310    3.2490   -1.1420 c3        1 MOL     -0.219995
    119 C39        -7.8010    3.2760   -1.4830 ca        1 MOL      0.107447
    120 C40        -8.2090    3.3730   -2.8560 ca        1 MOL     -0.179999
    121 C41        -8.7310    3.1710   -0.4420 ca        1 MOL     -0.179999
    122 C42        -9.5640    3.2620   -3.1950 ca        1 MOL     -0.086182
    123 C43       -10.0670    3.1570   -0.7870 ca        1 MOL     -0.086182
    124 C44       -10.5060    3.2190   -2.1250 ca        1 MOL     -0.152994
    125 H51        -4.0400    2.6440   -0.1620 hn        1 MOL      0.215935
    126 H52        -5.6030    1.7030   -2.3820 h1        1 MOL      0.013458
    127 H53        -5.8950    3.9530   -1.8520 hc        1 MOL      0.083002
    128 H54        -6.1240    3.6400   -0.1430 hc        1 MOL      0.083002
    129 H55        -7.4700    3.4150   -3.6510 ha        1 MOL      0.140675
    130 H56        -8.3940    2.9680    0.5640 ha        1 MOL      0.140675
    131 H57        -9.8470    3.3190   -4.2400 ha        1 MOL      0.104233
    132 H58       -10.8150    2.9330   -0.0440 ha        1 MOL      0.104233
    133 H59       -11.5670    3.3460   -2.2930 ha        1 MOL      0.106826
    134 N12        -7.2810   -0.0260   -1.3940 n         1 MOL      0.058622
    135 C45        -8.1250   -1.0150   -0.7370 c3        1 MOL      0.106318
    136 C46        -7.5190   -1.7950    0.4780 c         1 MOL      0.178548
    137 O20        -8.2900   -2.0040    1.4140 o         1 MOL     -0.466999
    138 C47        -8.5200   -1.9220   -1.8920 c3        1 MOL      0.072908
    139 C48        -8.5700   -1.0040   -3.0940 c3        1 MOL     -0.191958
    140 C49        -7.3580   -0.1220   -2.8220 c3        1 MOL     -0.010998
    141 H60        -9.0110   -0.5010   -0.3670 h1        1 MOL      0.056658
    142 H61        -7.7450   -2.6720   -2.0350 hc        1 MOL     -0.005154
    143 H62        -9.5030   -2.4020   -1.7550 hc        1 MOL     -0.005154
    144 H63        -8.3110   -1.5350   -4.0090 hc        1 MOL      0.059952
    145 H64        -9.5030   -0.4530   -3.0400 hc        1 MOL      0.059952
    146 H65        -6.4670   -0.6560   -3.1710 h1        1 MOL      0.045998
    147 H66        -7.5490    0.7840   -3.3980 h1        1 MOL      0.045998
    148 N13        -6.1860   -2.0670    0.5290 n         1 MOL     -0.029870
    149 C50        -5.7080   -2.8940    1.6980 c3        1 MOL     -0.139081
    150 C51        -5.6260   -2.1210    2.9970 c         1 MOL      0.484131
    151 O21        -5.7660   -2.7720    4.0310 o         1 MOL     -0.553539
    152 C52        -4.3350   -3.5700    1.4180 c3        1 MOL     -0.057312
    153 C53        -4.4330   -4.6200    0.3810 c3        1 MOL      0.020054
    154 C54        -3.1810   -4.8010   -0.5250 c         1 MOL      0.499150
    155 O22        -3.1950   -4.6760   -1.7580 o         1 MOL     -0.693016
    156 O23        -2.1190   -5.0930    0.1010 o         1 MOL     -0.693016
    157 H67        -5.5660   -2.0310   -0.2760 hn        1 MOL      0.235684
    158 H68        -6.4330   -3.6240    2.0370 h1        1 MOL      0.088198
    159 H69        -3.9550   -3.9500    2.3640 hc        1 MOL      0.064685
    160 H70        -3.6170   -2.8050    1.1170 hc        1 MOL      0.064685
    161 H71        -5.3010   -4.4230   -0.2320 hc        1 MOL     -0.013167
    162 H72        -4.5580   -5.5590    0.9290 hc        1 MOL     -0.013167
    163 N14        -5.3630   -0.8300    2.9060 n         1 MOL     -0.138034
    164 C55        -5.3030    0.1520    4.0130 c3        1 MOL     -0.408198
    165 H73        -5.1590    1.1510    3.6040 h1        1 MOL      0.147558
    166 H74        -6.2340    0.1210    4.5770 h1        1 MOL      0.147558
    167 H75        -4.4700   -0.0940    4.6720 h1        1 MOL      0.147558
    168 H76        -5.2850   -0.4540    1.9670 hn        1 MOL      0.167438
    169 Ca1        -0.5720   -4.0980   -1.6080 Ca        1 MOL      1.735522
    170 O24        -0.3370   -6.6730   -2.3070 oh        1 MOL     -0.834310
    171 H77        -0.2600   -7.5530   -1.9460 ho        1 MOL      0.410345
    172 H78        -1.0540   -6.7360   -2.9370 ho        1 MOL      0.410345
    173 O25        -1.0580   -3.5850   -4.1290 oh        1 MOL     -0.834310
    174 H79        -1.8720   -3.4180   -4.6010 ho        1 MOL      0.410345
    175 H80        -0.3680   -3.3180   -4.7440 ho        1 MOL      0.410345
    176 O26         0.7840   -5.4370    0.2390 oh        1 MOL     -0.834310
    177 H81         1.2640   -6.2590    0.1150 ho        1 MOL      0.410345
    178 H82         0.5490   -5.4480    1.1690 ho        1 MOL      0.410345
@<TRIPOS>BOND
     1    1    2 1   
     2    1    4 1   
     3    1    5 1   
     4    1    6 1   
     5    2    3 2   
     6    2    7 1   
     7    7    8 1   
     8    7   15 1   
     9    8    9 1   
    10    8   11 1   
    11    8   16 1   
    12    9   10 2   
    13    9   19 1   
    14   11   12 1   
    15   11   17 1   
    16   11   18 1   
    17   12   13 1   
    18   12   14 1   
    19   19   20 1   
    20   19   24 1   
    21   20   21 1   
    22   20   23 1   
    23   20   25 1   
    24   21   22 2   
    25   21   29 1   
    26   23   26 1   
    27   23   27 1   
    28   23   28 1   
    29   29   30 1   
    30   29   37 1   
    31   30   31 1   
    32   30   33 1   
    33   30   38 1   
    34   31   32 2   
    35   31   41 1   
    36   33   34 1   
    37   33   39 1   
    38   33   40 1   
    39   34   35 1   
    40   34   36 1   
    41   41   42 1   
    42   41   45 1   
    43   42   43 1   
    44   42   46 1   
    45   42   47 1   
    46   43   44 2   
    47   43   48 1   
    48   48   49 1   
    49   48   56 1   
    50   49   50 1   
    51   49   52 1   
    52   49   57 1   
    53   50   51 2   
    54   50   62 1   
    55   52   53 1   
    56   52   58 1   
    57   52   59 1   
    58   53   54 1   
    59   53   55 2   
    60   54   60 1   
    61   54   61 1   
    62   62   63 1   
    63   62   66 1   
    64   63   64 1   
    65   63   67 1   
    66   63   68 1   
    67   64   65 2   
    68   64   69 1   
    69   69   70 1   
    70   69   76 1   
    71   70   71 1   
    72   70   73 1   
    73   70   77 1   
    74   71   72 2   
    75   71   83 1   
    76   73   74 1   
    77   73   75 1   
    78   73   78 1   
    79   74   80 1   
    80   74   81 1   
    81   74   82 1   
    82   75   79 1   
    83   83   84 1   
    84   83   91 1   
    85   84   85 1   
    86   84   87 1   
    87   84   92 1   
    88   85   86 2   
    89   85  102 1   
    90   87   88 1   
    91   87   89 1   
    92   87   93 1   
    93   88   90 1   
    94   88   94 1   
    95   88   95 1   
    96   89   96 1   
    97   89   97 1   
    98   89   98 1   
    99   90   99 1   
   100   90  100 1   
   101   90  101 1   
   102  102  103 1   
   103  102  110 1   
   104  103  104 1   
   105  103  106 1   
   106  103  111 1   
   107  104  105 2   
   108  104  114 1   
   109  106  107 1   
   110  106  112 1   
   111  106  113 1   
   112  107  108 1   
   113  107  109 1   
   114  114  115 1   
   115  114  125 1   
   116  115  116 1   
   117  115  118 1   
   118  115  126 1   
   119  116  117 2   
   120  116  134 1   
   121  118  119 1   
   122  118  127 1   
   123  118  128 1   
   124  119  120 ar  
   125  119  121 ar  
   126  120  122 ar  
   127  120  129 1   
   128  121  123 ar  
   129  121  130 1   
   130  122  124 ar  
   131  122  131 1   
   132  123  124 ar  
   133  123  132 1   
   134  124  133 1   
   135  134  135 1   
   136  134  140 1   
   137  135  136 1   
   138  135  138 1   
   139  135  141 1   
   140  136  137 2   
   141  136  148 1   
   142  138  139 1   
   143  138  142 1   
   144  138  143 1   
   145  139  140 1   
   146  139  144 1   
   147  139  145 1   
   148  140  146 1   
   149  140  147 1   
   150  148  149 1   
   151  148  157 1   
   152  149  150 1   
   153  149  152 1   
   154  149  158 1   
   155  150  151 2   
   156  150  163 1   
   157  152  153 1   
   158  152  159 1   
   159  152  160 1   
   160  153  154 1   
   161  153  161 1   
   162  153  162 1   
   163  154  155 1   
   164  154  156 1   
   165  163  164 1   
   166  163  168 1   
   167  164  165 1   
   168  164  166 1   
   169  164  167 1   
   170  170  171 1   
   171  170  172 1   
   172  173  174 1   
   173  173  175 1   
   174  176  177 1   
   175  176  178 1   
@<TRIPOS>SUBSTRUCTURE
     1 MOL         1 TEMP              0 ****  ****    0 ROOT
