@<TRIPOS>MOLECULE
MOL
  192   187     1     0     0
SMALL
resp


@<TRIPOS>ATOM
      1 C1          4.0950   -2.8490   -2.8660 c3        1 MOL     -0.092407
      2 C2          3.1120   -3.2110   -1.7720 c         1 MOL      0.557506
      3 O1          2.0860   -2.5200   -1.6000 o         1 MOL     -0.453143
      4 H1          3.6820   -2.0460   -3.4750 hc        1 MOL      0.015280
      5 H2          5.0330   -2.5180   -2.4170 hc        1 MOL      0.015280
      6 H3          4.2800   -3.7220   -3.4920 hc        1 MOL      0.015280
      7 N1          3.3500   -4.2980   -1.0860 n         1 MOL     -0.419486
      8 C3          2.5000   -4.8590   -0.0150 c3        1 MOL     -0.043510
      9 C4          0.9950   -4.8080   -0.2880 c         1 MOL      0.794506
     10 O2          0.1890   -4.3410    0.5560 o         1 MOL     -0.545187
     11 C5          2.9580   -4.3840    1.3440 c3        1 MOL     -0.507523
     12 C6          4.4250   -4.1720    1.5150 c         1 MOL      0.963505
     13 O3          5.2220   -5.0940    1.7830 o         1 MOL     -0.811222
     14 O4          4.9010   -3.0420    1.3910 o         1 MOL     -0.811222
     15 H4          4.2300   -4.7310   -1.3230 hn        1 MOL      0.215147
     16 H5          2.7400   -5.9210    0.0190 h1        1 MOL      0.104275
     17 H6          2.5390   -5.1660    1.9630 hc        1 MOL      0.156142
     18 H7          2.4680   -3.4160    1.4750 hc        1 MOL      0.156142
     19 N2          0.5680   -5.0850   -1.5390 n         1 MOL     -0.725252
     20 C7         -0.8460   -5.2740   -1.8570 c3        1 MOL     -0.075057
     21 C8         -1.4000   -6.5850   -1.2300 c         1 MOL      0.611759
     22 O5         -0.7110   -7.5580   -1.1220 o         1 MOL     -0.598509
     23 C9         -1.2220   -5.0240   -3.3330 c3        1 MOL      0.040803
     24 C10        -0.7710   -6.2930   -4.1540 c3        1 MOL      0.079348
     25 C11        -0.4860   -3.7460   -3.8450 c3        1 MOL     -0.187405
     26 C12        -1.1290   -6.4510   -5.6130 c3        1 MOL     -0.115990
     27 H8          1.1840   -5.1780   -2.3340 hn        1 MOL      0.345850
     28 H9         -1.3380   -4.4940   -1.2770 h1        1 MOL      0.205829
     29 H10        -2.3050   -4.9350   -3.3150 hc        1 MOL      0.072134
     30 H11        -1.2510   -7.1430   -3.6600 hc        1 MOL     -0.007106
     31 H12         0.3070   -6.3780   -4.0520 hc        1 MOL     -0.007106
     32 H13        -0.7210   -3.6020   -4.9060 hc        1 MOL      0.040647
     33 H14        -0.7210   -2.8050   -3.3570 hc        1 MOL      0.040647
     34 H15         0.5830   -3.8890   -3.7260 hc        1 MOL      0.040647
     35 H16        -0.7000   -7.3000   -6.1550 hc        1 MOL      0.017338
     36 H17        -2.2140   -6.5090   -5.6730 hc        1 MOL      0.017338
     37 H18        -0.8480   -5.5710   -6.1970 hc        1 MOL      0.017338
     38 N3         -2.6760   -6.6780   -0.7750 n         1 MOL     -0.493843
     39 C13        -3.6720   -5.6630   -0.5840 c3        1 MOL      0.067159
     40 C14        -4.2160   -5.8380    0.8750 c         1 MOL      0.566594
     41 O6         -4.1050   -6.9010    1.4620 o         1 MOL     -0.596019
     42 C15        -4.8520   -5.7200   -1.5580 c3        1 MOL     -0.142088
     43 C16        -5.9010   -4.5940   -1.6420 c         1 MOL      0.673934
     44 O7         -6.5820   -4.5860   -2.7270 o         1 MOL     -0.711102
     45 O8         -5.9190   -3.7180   -0.7340 o         1 MOL     -0.711102
     46 H19        -2.9410   -7.6000   -0.4460 hn        1 MOL      0.292111
     47 H20        -3.1550   -4.7080   -0.6010 h1        1 MOL     -0.012977
     48 H21        -5.4270   -6.6300   -1.3720 hc        1 MOL      0.017532
     49 H22        -4.4670   -5.7950   -2.5690 hc        1 MOL      0.017532
     50 N4         -4.6520   -4.7480    1.4090 n         1 MOL     -0.272783
     51 C17        -4.9040   -4.5940    2.8850 c3        1 MOL     -0.094353
     52 C18        -5.8980   -3.4960    3.2750 c         1 MOL      0.398321
     53 O9         -7.0600   -3.7790    3.6290 o         1 MOL     -0.546845
     54 H23        -4.6430   -3.9510    0.7940 hn        1 MOL      0.231378
     55 H24        -3.9750   -4.4030    3.4270 h1        1 MOL      0.074616
     56 H25        -5.2570   -5.5930    3.1580 h1        1 MOL      0.074616
     57 N5         -5.4570   -2.2630    3.1930 n         1 MOL     -0.096146
     58 C19        -6.0750   -1.0460    3.5760 c3        1 MOL      0.022588
     59 C20        -7.0450   -0.4160    2.5800 c         1 MOL      0.472838
     60 O10        -8.1130    0.1500    2.9180 o         1 MOL     -0.579784
     61 C21        -4.9530   -0.1030    3.9920 c3        1 MOL     -0.400103
     62 C22        -3.9480    0.0650    2.8320 c         1 MOL      0.773963
     63 O11        -2.9510   -0.7100    2.7060 o         1 MOL     -0.704767
     64 O12        -4.1940    0.8260    1.9590 o         1 MOL     -0.704767
     65 H26        -4.4460   -2.2170    3.2030 hn        1 MOL      0.131835
     66 H27        -6.7360   -1.1570    4.4380 h1        1 MOL      0.051049
     67 H28        -4.4230   -0.4990    4.8640 hc        1 MOL      0.087938
     68 H29        -5.3400    0.8840    4.2430 hc        1 MOL      0.087938
     69 N6         -6.8600   -0.6610    1.2760 n         1 MOL     -0.215521
     70 C23        -7.6890   -0.1900    0.1830 c3        1 MOL     -0.125144
     71 C24        -7.7000    1.3210   -0.1150 c         1 MOL      0.470039
     72 O13        -8.5850    1.7060   -0.9190 o         1 MOL     -0.545709
     73 H30        -5.9900   -1.1100    1.0160 hn        1 MOL      0.251527
     74 H31        -8.7220   -0.5080    0.3300 h1        1 MOL      0.098656
     75 H32        -7.3810   -0.6670   -0.7400 h1        1 MOL      0.098656
     76 N7         -6.9610    2.1110    0.7200 n         1 MOL     -0.108703
     77 C25        -6.8260    3.5300    0.5280 c3        1 MOL     -0.158963
     78 C26        -6.4640    4.0710   -0.8550 c         1 MOL      0.576417
     79 O14        -6.9470    5.0980   -1.2580 o         1 MOL     -0.490576
     80 C27        -8.0630    4.2490    1.1310 c3        1 MOL      0.078802
     81 C28        -8.4200    3.9560    2.6020 c3        1 MOL     -0.157075
     82 C29        -7.4520    4.6320    3.5790 c         1 MOL      0.624178
     83 N8         -7.5420    4.4230    4.8540 n         1 MOL     -0.782456
     84 O15        -6.5570    5.2500    3.1300 o         1 MOL     -0.537018
     85 H33        -6.3310    1.6770    1.3910 hn        1 MOL      0.211850
     86 H34        -5.9940    3.7790    1.1680 h1        1 MOL      0.127473
     87 H35        -8.9680    3.8860    0.6580 hc        1 MOL     -0.001439
     88 H36        -8.0630    5.2970    0.8140 hc        1 MOL     -0.001439
     89 H37        -8.4380    2.9010    2.8670 hc        1 MOL      0.029242
     90 H38        -9.4000    4.3180    2.9390 hc        1 MOL      0.029242
     91 H39        -8.3180    3.8280    5.1280 hn        1 MOL      0.347901
     92 H40        -6.9700    4.9540    5.4890 hn        1 MOL      0.347901
     93 N9         -5.6320    3.3420   -1.6480 n         1 MOL     -0.494070
     94 C30        -5.2030    3.7480   -3.0150 c3        1 MOL     -0.122217
     95 C31        -3.6600    3.5490   -3.2740 c         1 MOL      0.549498
     96 O16        -3.2490    3.7520   -4.4200 o         1 MOL     -0.571911
     97 C32        -6.0960    2.9640   -4.0560 c3        1 MOL      0.215425
     98 C33        -6.0000    1.4270   -3.8210 c3        1 MOL     -0.205182
     99 C34        -7.5810    3.3410   -3.9820 c3        1 MOL     -0.205182
    100 H41        -5.2980    2.4780   -1.2510 hn        1 MOL      0.240321
    101 H42        -5.3900    4.8140   -3.1370 h1        1 MOL      0.111874
    102 H43        -5.8610    3.2370   -5.0900 hc        1 MOL     -0.017573
    103 H44        -6.3880    1.0070   -4.7490 hc        1 MOL      0.048954
    104 H45        -4.9900    1.0330   -3.7010 hc        1 MOL      0.048954
    105 H46        -6.6800    1.1680   -3.0120 hc        1 MOL      0.048954
    106 H47        -7.8680    4.3790   -4.1520 hc        1 MOL      0.048954
    107 H48        -8.1420    2.7730   -4.7280 hc        1 MOL      0.048954
    108 H49        -7.9900    3.0750   -3.0080 hc        1 MOL      0.048954
    109 N10        -2.9580    2.7910   -2.4220 n         1 MOL     -0.459179
    110 C35        -1.5330    2.5430   -2.5150 c3        1 MOL      0.240975
    111 C36        -0.8030    2.9180   -1.2470 c         1 MOL      0.496872
    112 O17        -1.4100    3.1740   -0.1970 o         1 MOL     -0.526126
    113 C37        -1.5070    1.0050   -2.7380 c3        1 MOL     -0.150628
    114 C38        -0.0770    0.4390   -2.9540 c         1 MOL      0.593419
    115 N11         0.1510   -0.7550   -2.4180 n         1 MOL     -0.722827
    116 O18         0.7400    1.1490   -3.5370 o         1 MOL     -0.566438
    117 H50        -3.5170    2.4470   -1.6500 hn        1 MOL      0.290157
    118 H51        -1.0880    3.0400   -3.3710 h1        1 MOL      0.045057
    119 H52        -2.0180    0.7390   -3.6610 hc        1 MOL      0.070787
    120 H53        -2.0260    0.4820   -1.9350 hc        1 MOL      0.070787
    121 H54        -0.6030   -1.2780   -1.9980 hn        1 MOL      0.347301
    122 H55         1.0670   -1.1640   -2.4080 hn        1 MOL      0.347301
    123 N12         0.5450    2.8880   -1.3160 n         1 MOL     -0.621253
    124 C39         1.6070    3.2380   -0.3260 c3        1 MOL      0.507077
    125 C40         3.0120    3.4990   -0.7830 c         1 MOL      0.306432
    126 O19         3.4570    3.0480   -1.7980 o         1 MOL     -0.493099
    127 C41         1.6450    2.2480    0.7880 c3        1 MOL     -0.275812
    128 C42         2.0790    2.8200    2.1640 ca        1 MOL      0.114816
    129 C43         3.4270    2.5420    2.6110 ca        1 MOL     -0.257231
    130 C44         1.1200    3.2860    3.1120 ca        1 MOL     -0.257231
    131 C45         3.7880    2.9750    3.8960 ca        1 MOL     -0.195386
    132 C46         1.4990    3.6610    4.4390 ca        1 MOL     -0.195386
    133 C47         2.8430    3.4430    4.8410 ca        1 MOL      0.274329
    134 O20         3.2190    3.8100    6.0150 oh        1 MOL     -0.472978
    135 H56         0.8620    2.5170   -2.1960 hn        1 MOL      0.280453
    136 H57         1.3220    4.1680    0.1610 h1        1 MOL     -0.050811
    137 H58         2.4170    1.5320    0.5020 hc        1 MOL      0.116535
    138 H59         0.6810    1.7510    0.8610 hc        1 MOL      0.116535
    139 H60         4.2350    2.1390    2.0240 ha        1 MOL      0.199998
    140 H61         0.0700    3.2450    2.8540 ha        1 MOL      0.199998
    141 H62         4.8220    2.8830    4.1920 ha        1 MOL      0.128447
    142 H63         0.7640    4.1570    5.0580 ha        1 MOL      0.128447
    143 H64         4.1550    3.6820    6.1740 ho        1 MOL      0.361692
    144 N13         3.6900    4.3670    0.0280 n         1 MOL     -0.442440
    145 C48         5.0200    4.9560   -0.2190 c3        1 MOL      0.253545
    146 C49         6.0740    4.3450    0.8040 c         1 MOL      0.315993
    147 O21         6.1930    4.8420    1.8920 o         1 MOL     -0.537426
    148 C50         4.9880    6.5040   -0.1860 c3        1 MOL      0.035811
    149 C51         4.2730    7.1200   -1.3290 c3        1 MOL     -0.139626
    150 C52         4.6420    8.6320   -1.3910 c         1 MOL      0.644303
    151 O22         5.3570    9.0300   -2.3160 o         1 MOL     -0.683012
    152 O23         4.3390    9.3560   -0.3810 o         1 MOL     -0.683012
    153 H65         3.1520    4.7650    0.7800 hn        1 MOL      0.307906
    154 H66         5.2820    4.6970   -1.2450 h1        1 MOL      0.062504
    155 H67         6.0070    6.8570   -0.3080 hc        1 MOL      0.015316
    156 H68         4.5990    6.7810    0.8020 hc        1 MOL      0.015316
    157 H69         3.2090    7.0820   -1.1070 hc        1 MOL     -0.006529
    158 H70         4.5840    6.6000   -2.2340 hc        1 MOL     -0.006529
    159 N14         6.7790    3.2550    0.5030 n         1 MOL     -0.235968
    160 C53         6.6710    2.4790   -0.7510 c3        1 MOL     -0.357124
    161 C54         7.1700    3.1960   -2.0270 c         1 MOL      0.532569
    162 O24         8.1190    4.0050   -1.9650 o         1 MOL     -0.539968
    163 C55         7.3800    1.1050   -0.5810 c3        1 MOL      0.130230
    164 C56         6.4320    0.1600    0.1880 c3        1 MOL     -0.126305
    165 C57         7.2260   -1.0540    0.6570 c         1 MOL      0.923274
    166 O25         7.6740   -1.1990    1.7910 o         1 MOL     -0.796596
    167 O26         7.5500   -1.8980   -0.2350 o         1 MOL     -0.796596
    168 H71         7.3460    2.8300    1.2260 hn        1 MOL      0.266911
    169 H72         5.6130    2.3090   -0.9610 h1        1 MOL      0.172723
    170 H73         8.3650    1.0890   -0.1200 hc        1 MOL     -0.007956
    171 H74         7.6290    0.6130   -1.5150 hc        1 MOL     -0.007956
    172 H75         5.5790   -0.1960   -0.3820 hc        1 MOL     -0.004087
    173 H76         6.0220    0.6610    1.0590 hc        1 MOL     -0.004087
    174 N15         6.4710    2.9350   -3.1380 n         1 MOL     -0.265291
    175 C58         6.6400    3.3290   -4.5700 c3        1 MOL     -0.164919
    176 H77         5.9420    4.1310   -4.8100 h1        1 MOL      0.090058
    177 H78         7.6600    3.6750   -4.7350 h1        1 MOL      0.090058
    178 H79         6.4390    2.4690   -5.2100 h1        1 MOL      0.090058
    179 H80         5.6490    2.3620   -2.9640 hn        1 MOL      0.253431
    180 Ca1         7.4720   -3.7980    1.4720 Ca        1 MOL      1.643977
    181 O27         8.6000   -6.0290    2.7100 oh        1 MOL     -0.791531
    182 H81         9.5060   -6.1530    2.4240 ho        1 MOL      0.384264
    183 H82         8.5970   -6.3140    3.6260 ho        1 MOL      0.384264
    184 O28         6.8330   -3.1650    3.9790 oh        1 MOL     -0.791531
    185 H83         6.5560   -2.2480    4.0160 ho        1 MOL      0.384264
    186 H84         7.1600   -3.3540    4.8600 ho        1 MOL      0.384264
    187 O29         9.9800   -3.3600    2.6210 oh        1 MOL     -0.791531
    188 H85        10.3830   -2.5050    2.7210 ho        1 MOL      0.384264
    189 H86        10.4170   -3.9160    3.2610 ho        1 MOL      0.384264
    190 O30         9.4810   -3.9310   -0.3150 oh        1 MOL     -0.791531
    191 H87         9.3260   -3.1950   -0.9170 ho        1 MOL      0.384264
    192 H88         9.9030   -4.5920   -0.8610 ho        1 MOL      0.384264
@<TRIPOS>BOND
     1    1    2 1   
     2    1    4 1   
     3    1    5 1   
     4    1    6 1   
     5    2    3 2   
     6    2    7 1   
     7    7    8 1   
     8    7   15 1   
     9    8    9 1   
    10    8   11 1   
    11    8   16 1   
    12    9   10 2   
    13    9   19 1   
    14   11   12 1   
    15   11   17 1   
    16   11   18 1   
    17   12   13 1   
    18   12   14 1   
    19   19   20 1   
    20   19   27 1   
    21   20   21 1   
    22   20   23 1   
    23   20   28 1   
    24   21   22 2   
    25   21   38 1   
    26   23   24 1   
    27   23   25 1   
    28   23   29 1   
    29   24   26 1   
    30   24   30 1   
    31   24   31 1   
    32   25   32 1   
    33   25   33 1   
    34   25   34 1   
    35   26   35 1   
    36   26   36 1   
    37   26   37 1   
    38   38   39 1   
    39   38   46 1   
    40   39   40 1   
    41   39   42 1   
    42   39   47 1   
    43   40   41 2   
    44   40   50 1   
    45   42   43 1   
    46   42   48 1   
    47   42   49 1   
    48   43   44 1   
    49   43   45 1   
    50   50   51 1   
    51   50   54 1   
    52   51   52 1   
    53   51   55 1   
    54   51   56 1   
    55   52   53 2   
    56   52   57 1   
    57   57   58 1   
    58   57   65 1   
    59   58   59 1   
    60   58   61 1   
    61   58   66 1   
    62   59   60 2   
    63   59   69 1   
    64   61   62 1   
    65   61   67 1   
    66   61   68 1   
    67   62   63 1   
    68   62   64 1   
    69   69   70 1   
    70   69   73 1   
    71   70   71 1   
    72   70   74 1   
    73   70   75 1   
    74   71   72 2   
    75   71   76 1   
    76   76   77 1   
    77   76   85 1   
    78   77   78 1   
    79   77   80 1   
    80   77   86 1   
    81   78   79 2   
    82   78   93 1   
    83   80   81 1   
    84   80   87 1   
    85   80   88 1   
    86   81   82 1   
    87   81   89 1   
    88   81   90 1   
    89   82   83 1   
    90   82   84 2   
    91   83   91 1   
    92   83   92 1   
    93   93   94 1   
    94   93  100 1   
    95   94   95 1   
    96   94   97 1   
    97   94  101 1   
    98   95   96 2   
    99   95  109 1   
   100   97   98 1   
   101   97   99 1   
   102   97  102 1   
   103   98  103 1   
   104   98  104 1   
   105   98  105 1   
   106   99  106 1   
   107   99  107 1   
   108   99  108 1   
   109  109  110 1   
   110  109  117 1   
   111  110  111 1   
   112  110  113 1   
   113  110  118 1   
   114  111  112 2   
   115  111  123 1   
   116  113  114 1   
   117  113  119 1   
   118  113  120 1   
   119  114  115 1   
   120  114  116 2   
   121  115  121 1   
   122  115  122 1   
   123  123  124 1   
   124  123  135 1   
   125  124  125 1   
   126  124  127 1   
   127  124  136 1   
   128  125  126 2   
   129  125  144 1   
   130  127  128 1   
   131  127  137 1   
   132  127  138 1   
   133  128  129 ar  
   134  128  130 ar  
   135  129  131 ar  
   136  129  139 1   
   137  130  132 ar  
   138  130  140 1   
   139  131  133 ar  
   140  131  141 1   
   141  132  133 ar  
   142  132  142 1   
   143  133  134 1   
   144  134  143 1   
   145  144  145 1   
   146  144  153 1   
   147  145  146 1   
   148  145  148 1   
   149  145  154 1   
   150  146  147 2   
   151  146  159 1   
   152  148  149 1   
   153  148  155 1   
   154  148  156 1   
   155  149  150 1   
   156  149  157 1   
   157  149  158 1   
   158  150  151 1   
   159  150  152 1   
   160  159  160 1   
   161  159  168 1   
   162  160  161 1   
   163  160  163 1   
   164  160  169 1   
   165  161  162 2   
   166  161  174 1   
   167  163  164 1   
   168  163  170 1   
   169  163  171 1   
   170  164  165 1   
   171  164  172 1   
   172  164  173 1   
   173  165  166 1   
   174  165  167 1   
   175  174  175 1   
   176  174  179 1   
   177  175  176 1   
   178  175  177 1   
   179  175  178 1   
   180  181  182 1   
   181  181  183 1   
   182  184  185 1   
   183  184  186 1   
   184  187  188 1   
   185  187  189 1   
   186  190  191 1   
   187  190  192 1   
@<TRIPOS>SUBSTRUCTURE
     1 MOL         1 TEMP              0 ****  ****    0 ROOT
