@<TRIPOS>MOLECULE
MOL
  182   178     1     0     0
SMALL
resp


@<TRIPOS>ATOM
      1 C1          0.9550   -3.9640    6.5070 c3        1 MOL     -0.341697
      2 C2          1.0100   -3.6590    4.9810 c         1 MOL      0.774205
      3 O1         -0.0280   -3.5380    4.3300 o         1 MOL     -0.607155
      4 H1          0.0280   -3.5720    6.9230 hc        1 MOL      0.100876
      5 H2          0.9950   -5.0420    6.6650 hc        1 MOL      0.100876
      6 H3          1.8040   -3.4930    7.0040 hc        1 MOL      0.100876
      7 N1          2.1890   -3.3340    4.4000 n         1 MOL     -0.700764
      8 C3          2.4490   -3.1350    2.9640 c3        1 MOL      0.224403
      9 C4          2.3520   -4.4340    2.1560 c         1 MOL      0.510870
     10 O2          2.7630   -5.5000    2.6510 o         1 MOL     -0.566070
     11 C5          3.7840   -2.3350    2.6740 c3        1 MOL     -0.220872
     12 C6          3.5960   -1.5410    1.4460 c         1 MOL      0.676158
     13 O3          3.9680   -0.3560    1.4230 o         1 MOL     -0.697452
     14 O4          3.0910   -2.0120    0.4380 o         1 MOL     -0.697452
     15 H4          2.9430   -3.2830    5.0770 hn        1 MOL      0.334675
     16 H5          1.6410   -2.4980    2.6170 h1        1 MOL     -0.037482
     17 H6          4.5550   -3.0890    2.5550 hc        1 MOL      0.096415
     18 H7          4.0620   -1.5510    3.3820 hc        1 MOL      0.096415
     19 N2          2.0550   -4.4520    0.8880 n         1 MOL     -0.252861
     20 C7          2.1280   -5.5760   -0.0790 c3        1 MOL      0.012724
     21 C8          3.2250   -5.3550   -1.2220 c         1 MOL      0.542109
     22 O5          3.6340   -6.2870   -1.9110 o         1 MOL     -0.568354
     23 C9          0.7380   -5.8150   -0.6650 c3        1 MOL      0.047375
     24 C10         0.4320   -7.3410   -0.7960 c3        1 MOL     -0.013552
     25 C11        -0.8050   -7.5020   -1.6500 c3        1 MOL      0.102935
     26 C12        -0.6630   -7.1460   -3.1070 c3        1 MOL      0.001022
     27 N3         -2.0270   -7.1340   -3.7390 n4        1 MOL     -0.287427
     28 H8          1.6790   -3.5830    0.5340 hn        1 MOL      0.192115
     29 H9          2.5610   -6.4290    0.4420 h1        1 MOL      0.074448
     30 H10         0.7710   -5.3820   -1.6700 hc        1 MOL     -0.033476
     31 H11        -0.0620   -5.2760   -0.1640 hc        1 MOL     -0.033476
     32 H12         0.1680   -7.7150    0.1970 hc        1 MOL      0.037417
     33 H13         1.2260   -7.9040   -1.2770 hc        1 MOL      0.037417
     34 H14        -1.6480   -6.9150   -1.3000 hc        1 MOL     -0.014809
     35 H15        -1.1070   -8.5550   -1.6620 hc        1 MOL     -0.014809
     36 H16         0.0620   -7.9080   -3.3890 hx        1 MOL      0.082547
     37 H17        -0.1870   -6.1770   -3.2910 hx        1 MOL      0.082547
     38 H18        -1.9930   -6.9740   -4.7370 hn        1 MOL      0.282306
     39 H19        -2.5320   -8.0040   -3.6360 hn        1 MOL      0.282306
     40 H20        -2.6640   -6.5240   -3.2390 hn        1 MOL      0.282306
     41 N4          3.6250   -4.1020   -1.3260 n         1 MOL     -0.250422
     42 C13         4.8680   -3.7940   -2.1630 c3        1 MOL      0.020118
     43 C14         6.1110   -3.2890   -1.3890 c         1 MOL      0.451413
     44 O6          7.2560   -3.2400   -1.9580 o         1 MOL     -0.513345
     45 C15         4.5380   -2.8880   -3.2800 c3        1 MOL     -0.224195
     46 C16         3.9570   -1.5360   -2.7900 c         1 MOL      0.773062
     47 O7          4.6060   -0.7460   -2.1050 o         1 MOL     -0.742254
     48 O8          2.7400   -1.2730   -2.9890 o         1 MOL     -0.742254
     49 H21         3.3420   -3.3170   -0.7610 hn        1 MOL      0.042325
     50 H22         5.2340   -4.7190   -2.6180 h1        1 MOL      0.117349
     51 H23         3.7490   -3.2890   -3.9190 hc        1 MOL      0.070843
     52 H24         5.4430   -2.8160   -3.8680 hc        1 MOL      0.070843
     53 N5          5.8410   -2.8820   -0.1520 n         1 MOL     -0.277415
     54 C17         6.9270   -2.3450    0.6620 c3        1 MOL     -0.053538
     55 C18         7.4800   -0.8840    0.3460 c         1 MOL      0.497066
     56 O9          8.5410   -0.5600    0.8610 o         1 MOL     -0.554927
     57 H25         4.9190   -2.5770    0.1010 hn        1 MOL      0.170954
     58 H26         7.7760   -3.0210    0.6090 h1        1 MOL      0.073436
     59 H27         6.6180   -2.3290    1.7060 h1        1 MOL      0.073436
     60 N6          6.7870   -0.1170   -0.4550 n         1 MOL     -0.215046
     61 C19         7.1710    1.2390   -0.7210 c3        1 MOL      0.128170
     62 C20         6.0330    2.2450   -0.7300 c         1 MOL      0.299040
     63 O10         4.8740    1.9340   -0.9840 o         1 MOL     -0.340425
     64 C21         7.9340    1.2880   -2.0730 c3        1 MOL     -0.283653
     65 C22         7.1900    1.8300   -3.2730 c         1 MOL      0.660896
     66 N7          6.1070    1.2780   -3.7440 n         1 MOL     -0.725966
     67 O11         7.6650    2.7410   -3.9150 o         1 MOL     -0.597486
     68 H28         5.9970   -0.4340   -1.0070 hn        1 MOL      0.209148
     69 H29         7.9000    1.6340   -0.0110 h1        1 MOL      0.064919
     70 H30         8.3590    0.3160   -2.3090 hc        1 MOL      0.107038
     71 H31         8.8180    1.9000   -1.9230 hc        1 MOL      0.107038
     72 H32         5.6900    0.4600   -3.3220 hn        1 MOL      0.339964
     73 H33         5.5680    1.7310   -4.4780 hn        1 MOL      0.339964
     74 N8          6.3510    3.5430   -0.5900 n         1 MOL     -0.400139
     75 C23         5.3600    4.6400   -0.7780 c3        1 MOL     -0.135968
     76 C24         4.2400    4.6300    0.2380 c         1 MOL      0.613112
     77 O12         4.3690    4.1660    1.3360 o         1 MOL     -0.499960
     78 H34         7.3120    3.8360   -0.5890 hn        1 MOL      0.329373
     79 H35         4.7500    4.6470   -1.6760 h1        1 MOL      0.099922
     80 H36         5.8700    5.6040   -0.6910 h1        1 MOL      0.099922
     81 N9          3.0470    4.9880   -0.2170 n         1 MOL     -0.620665
     82 C25         1.7880    4.8120    0.5680 c3        1 MOL      0.144009
     83 C26         1.3260    3.3890    0.8110 c         1 MOL      0.705416
     84 O13         1.6680    2.5150    0.0630 o         1 MOL     -0.636006
     85 C27         0.6860    5.5530   -0.1180 c3        1 MOL     -0.220970
     86 C28         1.1170    6.9910   -0.3180 ca        1 MOL      0.099255
     87 C29         1.1660    7.8070    0.8180 ca        1 MOL     -0.093901
     88 C30         1.1440    7.5760   -1.5480 ca        1 MOL     -0.093901
     89 C31         1.4680    9.1480    0.7530 ca        1 MOL     -0.358368
     90 C32         1.2910    8.9380   -1.6160 ca        1 MOL     -0.358368
     91 C33         1.4760    9.7500   -0.5140 ca        1 MOL      0.449448
     92 O14         1.6540   11.0790   -0.6400 oh        1 MOL     -0.493116
     93 H37         2.9320    5.2940   -1.1660 hn        1 MOL      0.324490
     94 H38         1.9070    5.2210    1.5720 h1        1 MOL      0.041796
     95 H39        -0.2400    5.3910    0.4190 hc        1 MOL      0.062508
     96 H40         0.7100    5.1280   -1.1200 hc        1 MOL      0.062508
     97 H41         1.0500    7.2880    1.7610 ha        1 MOL      0.113258
     98 H42         0.8620    6.9720   -2.4000 ha        1 MOL      0.113258
     99 H43         1.4790    9.8140    1.6030 ha        1 MOL      0.174535
    100 H44         1.1550    9.3540   -2.5970 ha        1 MOL      0.174535
    101 H45         2.0030   11.3680    0.2090 ho        1 MOL      0.368458
    102 N10         0.7430    3.1980    1.9610 n         1 MOL     -0.574909
    103 C34         0.4140    1.8490    2.6180 c3        1 MOL      0.025168
    104 C35         0.0370    0.7280    1.7070 c         1 MOL      0.284777
    105 O15         0.9770    0.1460    1.1270 o         1 MOL     -0.370212
    106 C36         1.5070    1.4750    3.6680 c3        1 MOL      0.202824
    107 C37         0.9520    0.3090    4.5600 c3        1 MOL     -0.025806
    108 C38         2.0680    2.5880    4.4720 c3        1 MOL     -0.183083
    109 C39        -0.0250    0.6900    5.7120 c3        1 MOL     -0.297981
    110 H46         0.5670    4.0560    2.4670 hn        1 MOL      0.313178
    111 H47        -0.4530    2.1440    3.2060 h1        1 MOL      0.078238
    112 H48         2.3380    1.0770    3.0850 hc        1 MOL      0.016998
    113 H49         1.8250   -0.1440    5.0430 hc        1 MOL      0.049692
    114 H50         0.5230   -0.4700    3.9420 hc        1 MOL      0.049692
    115 H51         1.3750    3.1600    5.0800 hc        1 MOL      0.045587
    116 H52         2.8230    2.1890    5.1520 hc        1 MOL      0.045587
    117 H53         2.5830    3.3280    3.8570 hc        1 MOL      0.045587
    118 H54         0.3610    1.4340    6.4110 hc        1 MOL      0.073540
    119 H55        -0.9900    1.1010    5.4130 hc        1 MOL      0.073540
    120 H56        -0.1700   -0.2630    6.2160 hc        1 MOL      0.073540
    121 N11        -1.2630    0.4250    1.5330 n         1 MOL     -0.133011
    122 C40        -1.6750   -0.7730    0.7780 c3        1 MOL     -0.511603
    123 C41        -3.1310   -0.9020    0.3830 c         1 MOL      0.749685
    124 O16        -3.4870   -1.5480   -0.6070 o         1 MOL     -0.587838
    125 C42        -1.2940   -2.0360    1.6170 c3        1 MOL      0.211594
    126 O17        -1.6770   -1.8650    2.9560 oh        1 MOL     -0.638440
    127 H57        -2.0310    0.8910    2.0020 hn        1 MOL      0.214656
    128 H58        -0.9770   -0.7990   -0.0570 h1        1 MOL      0.231391
    129 H59        -0.2110   -2.0170    1.5360 h1        1 MOL      0.066569
    130 H60        -1.7530   -2.9660    1.2590 h1        1 MOL      0.066569
    131 H61        -1.2580   -2.4850    3.5510 ho        1 MOL      0.425428
    132 N12        -4.0720   -0.2220    0.9810 n         1 MOL     -0.508733
    133 C43        -5.4880   -0.0910    0.5250 c3        1 MOL      0.014480
    134 C44        -5.6680    0.4550   -0.9100 c         1 MOL      0.743325
    135 O18        -4.7800    1.1450   -1.4120 o         1 MOL     -0.585672
    136 C45        -6.3060    0.6900    1.6040 c3        1 MOL     -0.326013
    137 H62        -3.7930    0.3010    1.7920 hn        1 MOL      0.339402
    138 H63        -5.9020   -1.0990    0.4560 h1        1 MOL      0.108573
    139 H64        -6.0370    1.7460    1.6330 hc        1 MOL      0.108545
    140 H65        -7.3650    0.5170    1.4090 hc        1 MOL      0.108545
    141 H66        -6.1160    0.2720    2.5890 hc        1 MOL      0.108545
    142 N13        -6.8120    0.2160   -1.6200 n         1 MOL     -0.761373
    143 C46        -8.0030   -0.6340   -1.3440 c3        1 MOL      0.277814
    144 C47        -9.2480   -0.0810   -2.0630 c         1 MOL      0.341032
    145 O19        -9.2850   -0.0400   -3.2730 o         1 MOL     -0.501924
    146 C48        -7.6540   -2.0270   -1.8480 c3        1 MOL     -0.049069
    147 H67        -6.8460    0.5230   -2.5770 hn        1 MOL      0.358304
    148 H68        -8.1050   -0.6830   -0.2500 h1        1 MOL     -0.010565
    149 H69        -8.5230   -2.6460   -1.6530 hc        1 MOL      0.017909
    150 H70        -7.4790   -2.0370   -2.9290 hc        1 MOL      0.017909
    151 H71        -6.7670   -2.5050   -1.4480 hc        1 MOL      0.017909
    152 N14       -10.3900    0.0510   -1.3830 n         1 MOL     -0.154353
    153 C49       -10.6390   -0.1610    0.0420 c3        1 MOL     -0.047222
    154 C50       -10.0850    0.8280    0.9880 c         1 MOL      0.514363
    155 O20        -9.7620    0.5370    2.1680 o         1 MOL     -0.571577
    156 C51       -12.0950   -0.5090    0.3480 c3        1 MOL     -0.204742
    157 C52       -12.9710    0.6200   -0.1170 c3        1 MOL     -0.064495
    158 C53       -13.5830    0.3160   -1.5040 c         1 MOL      0.694627
    159 O21       -12.8480    0.3880   -2.4970 o         1 MOL     -0.657132
    160 O22       -14.8030    0.0920   -1.6290 o         1 MOL     -0.657132
    161 H72       -11.2140    0.1260   -1.9630 hn        1 MOL      0.201398
    162 H73       -10.0140   -0.9480    0.4360 h1        1 MOL      0.019594
    163 H74       -12.1900   -0.6420    1.4320 hc        1 MOL      0.089880
    164 H75       -12.3870   -1.3960   -0.2100 hc        1 MOL      0.089880
    165 H76       -12.5440    1.6210   -0.1710 hc        1 MOL      0.001840
    166 H77       -13.8060    0.7500    0.5750 hc        1 MOL      0.001840
    167 N15        -9.7630    1.9810    0.4290 n         1 MOL     -0.164156
    168 C54        -9.1660    3.0870    1.0610 c3        1 MOL     -0.181333
    169 H78        -9.7520    3.3640    1.9370 h1        1 MOL      0.078939
    170 H79        -8.1540    2.8270    1.3690 h1        1 MOL      0.078939
    171 H80        -9.1320    3.9270    0.3670 h1        1 MOL      0.078939
    172 H81       -10.1170    2.1290   -0.5020 hn        1 MOL      0.193772
    173 Ca1         2.5330    0.2540   -0.8400 Ca        1 MOL      1.688332
    174 O23         2.6120    1.8740   -3.0800 oh        1 MOL     -0.791951
    175 H82         2.3100    1.3650   -3.8410 ho        1 MOL      0.392931
    176 H83         2.5080    2.7860   -3.3470 ho        1 MOL      0.392931
    177 O24         0.5960   -2.1170   -1.4350 oh        1 MOL     -0.791951
    178 H84        -0.2810   -2.3090   -1.7630 ho        1 MOL      0.392931
    179 H85         1.1590   -2.2260   -2.2120 ho        1 MOL      0.392931
    180 O25         0.0630    0.8280   -1.7020 oh        1 MOL     -0.791951
    181 H86        -0.5320    0.3520   -2.2780 ho        1 MOL      0.392931
    182 H87        -0.3310    1.6970   -1.6090 ho        1 MOL      0.392931
@<TRIPOS>BOND
     1    1    2 1   
     2    1    4 1   
     3    1    5 1   
     4    1    6 1   
     5    2    3 2   
     6    2    7 1   
     7    7    8 1   
     8    7   15 1   
     9    8    9 1   
    10    8   11 1   
    11    8   16 1   
    12    9   10 2   
    13    9   19 1   
    14   11   12 1   
    15   11   17 1   
    16   11   18 1   
    17   12   13 1   
    18   12   14 1   
    19   19   20 1   
    20   19   28 1   
    21   20   21 1   
    22   20   23 1   
    23   20   29 1   
    24   21   22 2   
    25   21   41 1   
    26   23   24 1   
    27   23   30 1   
    28   23   31 1   
    29   24   25 1   
    30   24   32 1   
    31   24   33 1   
    32   25   26 1   
    33   25   34 1   
    34   25   35 1   
    35   26   27 1   
    36   26   36 1   
    37   26   37 1   
    38   27   38 1   
    39   27   39 1   
    40   27   40 1   
    41   41   42 1   
    42   41   49 1   
    43   42   43 1   
    44   42   45 1   
    45   42   50 1   
    46   43   44 2   
    47   43   53 1   
    48   45   46 1   
    49   45   51 1   
    50   45   52 1   
    51   46   47 1   
    52   46   48 1   
    53   53   54 1   
    54   53   57 1   
    55   54   55 1   
    56   54   58 1   
    57   54   59 1   
    58   55   56 2   
    59   55   60 1   
    60   60   61 1   
    61   60   68 1   
    62   61   62 1   
    63   61   64 1   
    64   61   69 1   
    65   62   63 2   
    66   62   74 1   
    67   64   65 1   
    68   64   70 1   
    69   64   71 1   
    70   65   66 1   
    71   65   67 2   
    72   66   72 1   
    73   66   73 1   
    74   74   75 1   
    75   74   78 1   
    76   75   76 1   
    77   75   79 1   
    78   75   80 1   
    79   76   77 2   
    80   76   81 1   
    81   81   82 1   
    82   81   93 1   
    83   82   83 1   
    84   82   85 1   
    85   82   94 1   
    86   83   84 2   
    87   83  102 1   
    88   85   86 1   
    89   85   95 1   
    90   85   96 1   
    91   86   87 ar  
    92   86   88 ar  
    93   87   89 ar  
    94   87   97 1   
    95   88   90 ar  
    96   88   98 1   
    97   89   91 ar  
    98   89   99 1   
    99   90   91 ar  
   100   90  100 1   
   101   91   92 1   
   102   92  101 1   
   103  102  103 1   
   104  102  110 1   
   105  103  104 1   
   106  103  106 1   
   107  103  111 1   
   108  104  105 2   
   109  104  121 1   
   110  106  107 1   
   111  106  108 1   
   112  106  112 1   
   113  107  109 1   
   114  107  113 1   
   115  107  114 1   
   116  108  115 1   
   117  108  116 1   
   118  108  117 1   
   119  109  118 1   
   120  109  119 1   
   121  109  120 1   
   122  121  122 1   
   123  121  127 1   
   124  122  123 1   
   125  122  125 1   
   126  122  128 1   
   127  123  124 2   
   128  123  132 1   
   129  125  126 1   
   130  125  129 1   
   131  125  130 1   
   132  126  131 1   
   133  132  133 1   
   134  132  137 1   
   135  133  134 1   
   136  133  136 1   
   137  133  138 1   
   138  134  135 2   
   139  134  142 1   
   140  136  139 1   
   141  136  140 1   
   142  136  141 1   
   143  142  143 1   
   144  142  147 1   
   145  143  144 1   
   146  143  146 1   
   147  143  148 1   
   148  144  145 2   
   149  144  152 1   
   150  146  149 1   
   151  146  150 1   
   152  146  151 1   
   153  152  153 1   
   154  152  161 1   
   155  153  154 1   
   156  153  156 1   
   157  153  162 1   
   158  154  155 2   
   159  154  167 1   
   160  156  157 1   
   161  156  163 1   
   162  156  164 1   
   163  157  158 1   
   164  157  165 1   
   165  157  166 1   
   166  158  159 1   
   167  158  160 1   
   168  167  168 1   
   169  167  172 1   
   170  168  169 1   
   171  168  170 1   
   172  168  171 1   
   173  174  175 1   
   174  174  176 1   
   175  177  178 1   
   176  177  179 1   
   177  180  181 1   
   178  180  182 1   
@<TRIPOS>SUBSTRUCTURE
     1 MOL         1 TEMP              0 ****  ****    0 ROOT
