@<TRIPOS>MOLECULE
MOL
  189   185     1     0     0
SMALL
resp


@<TRIPOS>ATOM
      1 C1        -11.4890    4.7340    4.0210 c3        1 MOL     -0.377816
      2 C2        -11.8190    4.2220    2.5920 c         1 MOL      0.619396
      3 O1        -12.8870    3.5730    2.4270 o         1 MOL     -0.562392
      4 H1        -11.3380    5.8130    3.9950 hc        1 MOL      0.103831
      5 H2        -12.3160    4.4990    4.6920 hc        1 MOL      0.103831
      6 H3        -10.5800    4.2500    4.3800 hc        1 MOL      0.103831
      7 N1        -11.0020    4.5040    1.5350 n         1 MOL     -0.316986
      8 C3        -10.9940    3.6600    0.3710 c3        1 MOL     -0.121216
      9 C4         -9.9660    2.4800    0.4970 c         1 MOL      0.407711
     10 O2         -8.9720    2.5280    1.2450 o         1 MOL     -0.508473
     11 C5        -10.9490    4.5290   -0.9080 c3        1 MOL     -0.115089
     12 C6         -9.7840    5.4530   -0.8990 c         1 MOL      0.577942
     13 O3         -8.9480    5.5540    0.0680 o         1 MOL     -0.665732
     14 O4         -9.6100    6.0980   -1.9930 o         1 MOL     -0.665732
     15 H4        -10.1510    5.0040    1.7710 hn        1 MOL      0.174028
     16 H5        -11.9590    3.1520    0.3330 h1        1 MOL      0.092547
     17 H6        -11.9460    4.9610   -0.8780 hc        1 MOL      0.109668
     18 H7        -10.7970    3.8660   -1.7670 hc        1 MOL      0.109668
     19 N2        -10.1040    1.5430   -0.4380 n         1 MOL     -0.306222
     20 C7         -9.4520    0.1540   -0.3460 c3        1 MOL      0.138781
     21 C8         -7.9920    0.0020   -0.9690 c         1 MOL      0.525228
     22 O5         -7.8120   -0.7570   -1.9090 o         1 MOL     -0.526448
     23 C9        -10.4340   -0.9280   -0.8440 c3        1 MOL     -0.230256
     24 C10       -10.1390   -2.3810   -0.5780 c3        1 MOL      0.409283
     25 C11       -11.4890   -3.1970   -0.8320 c3        1 MOL     -0.393947
     26 C12       -11.2720   -4.6800   -0.7880 c3        1 MOL      0.046862
     27 N3        -10.5840   -5.2690    0.3870 n4        1 MOL     -0.367465
     28 H8        -10.7650    1.6600   -1.1890 hn        1 MOL      0.248522
     29 H9         -9.1600   -0.1400    0.6650 h1        1 MOL     -0.015539
     30 H10       -10.5540   -0.9030   -1.9280 hc        1 MOL      0.078236
     31 H11       -11.4340   -0.7370   -0.4400 hc        1 MOL      0.078236
     32 H12        -9.8210   -2.5050    0.4530 hc        1 MOL     -0.051528
     33 H13        -9.3330   -2.7530   -1.2170 hc        1 MOL     -0.051528
     34 H14       -11.7860   -2.9620   -1.8490 hc        1 MOL      0.107715
     35 H15       -12.3120   -3.0000   -0.1340 hc        1 MOL      0.107715
     36 H16       -10.8100   -4.9940   -1.7200 hx        1 MOL      0.121724
     37 H17       -12.1980   -5.2380   -0.9110 hx        1 MOL      0.121724
     38 H18        -9.7850   -4.7280    0.6680 hn        1 MOL      0.318913
     39 H19       -11.2000   -5.3760    1.1880 hn        1 MOL      0.318913
     40 H20       -10.2540   -6.1910    0.1350 hn        1 MOL      0.318913
     41 N4         -7.0600    0.8440   -0.6060 n         1 MOL     -0.294107
     42 C13        -5.7130    1.0580   -1.2190 c3        1 MOL     -0.076192
     43 C14        -4.6660    1.7640   -0.3030 c         1 MOL      0.423964
     44 O6         -4.8730    2.8980    0.2220 o         1 MOL     -0.646277
     45 C15        -5.8130    1.7950   -2.5600 c3        1 MOL     -0.600151
     46 C16        -6.7320    2.9630   -2.7060 c         1 MOL      0.698433
     47 O7         -6.8500    3.8320   -1.7810 o         1 MOL     -0.609853
     48 O8         -7.3100    3.0710   -3.7900 o         1 MOL     -0.609853
     49 H21        -7.4090    1.5250    0.0460 hn        1 MOL      0.270560
     50 H22        -5.3240    0.0890   -1.5160 h1        1 MOL      0.154007
     51 H23        -6.1390    1.0640   -3.3020 hc        1 MOL      0.194118
     52 H24        -4.7960    2.0020   -2.8880 hc        1 MOL      0.194118
     53 N5         -3.5790    1.0800    0.0380 n         1 MOL     -0.166892
     54 C17        -3.1090   -0.2640   -0.4370 c3        1 MOL     -0.372735
     55 C18        -3.9450   -1.3930    0.0230 c         1 MOL      0.706008
     56 O9         -4.7050   -1.2850    0.9390 o         1 MOL     -0.551119
     57 H25        -3.0210    1.6150    0.6910 hn        1 MOL      0.249510
     58 H26        -2.0630   -0.4340   -0.2180 h1        1 MOL      0.151539
     59 H27        -3.1580   -0.2320   -1.5270 h1        1 MOL      0.151539
     60 N6         -3.8480   -2.5250   -0.6930 n         1 MOL     -0.508747
     61 C19        -4.6170   -3.7980   -0.5630 c3        1 MOL     -0.066278
     62 C20        -3.6440   -4.9790   -0.7510 c         1 MOL      0.728773
     63 O10        -2.8340   -4.9870   -1.6450 o         1 MOL     -0.533418
     64 C21        -5.7780   -3.8140   -1.5590 c3        1 MOL     -0.097899
     65 C22        -6.5250   -5.1510   -1.6450 c         1 MOL      0.624953
     66 O11        -7.0220   -5.4340   -2.7470 o         1 MOL     -0.705211
     67 O12        -6.6400   -5.9270   -0.6850 o         1 MOL     -0.705211
     68 H28        -3.0410   -2.5750   -1.2930 hn        1 MOL      0.281599
     69 H29        -5.1310   -3.8920    0.3870 h1        1 MOL      0.021486
     70 H30        -5.3600   -3.5360   -2.5290 hc        1 MOL      0.054468
     71 H31        -6.4870   -3.0280   -1.2700 hc        1 MOL      0.054468
     72 N7         -3.6650   -5.9330    0.1970 n         1 MOL     -0.364418
     73 C23        -2.8170   -7.1430    0.2630 c3        1 MOL     -0.143628
     74 C24        -1.4070   -6.8230    0.6830 c         1 MOL      0.519897
     75 O13        -0.6740   -7.6610    1.2190 o         1 MOL     -0.587725
     76 H32        -4.4240   -5.9230    0.8580 hn        1 MOL      0.238556
     77 H33        -2.7190   -7.5300   -0.7520 h1        1 MOL      0.121170
     78 H34        -3.2360   -7.9100    0.9210 h1        1 MOL      0.121170
     79 N8         -1.0430   -5.5610    0.5590 n         1 MOL     -0.161286
     80 C25         0.1970   -4.8900    1.0420 c3        1 MOL     -0.025331
     81 C26         0.5130   -3.5330    0.3800 c         1 MOL      0.522464
     82 O14        -0.3550   -3.0400   -0.3590 o         1 MOL     -0.463651
     83 C27         0.2550   -4.7530    2.5950 c3        1 MOL      0.182742
     84 C28        -1.0010   -4.1130    3.1980 c3        1 MOL     -0.135900
     85 O15         0.3890   -6.0360    3.2720 oh        1 MOL     -0.640882
     86 H35        -1.7170   -4.9110    0.1810 hn        1 MOL      0.039672
     87 H36         1.0530   -5.4910    0.7330 h1        1 MOL      0.065444
     88 H37         1.1690   -4.1810    2.7840 h1        1 MOL      0.098693
     89 H38        -0.2770   -6.6490    2.9220 ho        1 MOL      0.424568
     90 H39        -1.1740   -3.0610    2.9270 hc        1 MOL      0.038293
     91 H40        -1.8440   -4.7430    2.9210 hc        1 MOL      0.038293
     92 H41        -0.9770   -4.2290    4.2800 hc        1 MOL      0.038293
     93 N9          1.7510   -3.0500    0.5080 n         1 MOL     -0.473643
     94 C29         2.1490   -1.6810    0.2050 c3        1 MOL      0.019091
     95 C30         3.5460   -1.4720   -0.2600 c         1 MOL      0.484650
     96 O16         3.7980   -0.4960   -1.0210 o         1 MOL     -0.535277
     97 C31         1.9490   -0.7450    1.4240 c3        1 MOL     -0.068619
     98 C32         2.8060   -1.0830    2.6800 c3        1 MOL      0.381296
     99 C33         0.4400   -0.7800    1.7520 c3        1 MOL     -0.036599
    100 C34         2.8250    0.0390    3.7510 c3        1 MOL     -0.293688
    101 H42         2.4450   -3.6060    0.9830 hn        1 MOL      0.274076
    102 H43         1.5150   -1.3280   -0.6060 h1        1 MOL      0.112010
    103 H44         2.2510    0.2620    1.1580 hc        1 MOL      0.040221
    104 H45         3.8420   -1.1760    2.3690 hc        1 MOL     -0.105269
    105 H46         2.4820   -2.0450    3.0700 hc        1 MOL     -0.105269
    106 H47         0.2710   -1.5740    2.4810 hc        1 MOL      0.009511
    107 H48         0.1730    0.0940    2.3520 hc        1 MOL      0.009511
    108 H49        -0.1130   -0.7760    0.8140 hc        1 MOL      0.009511
    109 H50         1.8970   -0.0070    4.3160 hc        1 MOL      0.067272
    110 H51         3.6460   -0.1280    4.4590 hc        1 MOL      0.067272
    111 H52         2.9650    1.0070    3.2650 hc        1 MOL      0.067272
    112 N10         4.5330   -2.3350    0.0760 n         1 MOL     -0.255809
    113 C35         5.8950   -2.3240   -0.4960 c3        1 MOL     -0.079719
    114 C36         7.0590   -2.5140    0.5130 c         1 MOL      0.693970
    115 O17         6.8350   -3.0120    1.5940 o         1 MOL     -0.543994
    116 C37         6.0580   -3.2700   -1.6980 c3        1 MOL      0.411380
    117 C38         6.0260   -4.7320   -1.1690 c3        1 MOL     -0.346615
    118 O18         5.1320   -3.0590   -2.7370 oh        1 MOL     -0.596760
    119 H53         4.3600   -3.0610    0.7560 hn        1 MOL      0.193651
    120 H54         6.0590   -1.2930   -0.8270 h1        1 MOL      0.075197
    121 H55         7.0680   -3.0410   -2.0330 h1        1 MOL     -0.060529
    122 H56         5.5410   -2.7070   -3.5280 ho        1 MOL      0.400978
    123 H57         5.9100   -5.4100   -2.0190 hc        1 MOL      0.091918
    124 H58         6.9910   -4.9800   -0.7360 hc        1 MOL      0.091918
    125 H59         5.2680   -4.8610   -0.3900 hc        1 MOL      0.091918
    126 N11         8.3210   -2.1340    0.2090 n         1 MOL     -0.721160
    127 C39         9.5520   -2.4380    1.0380 c3        1 MOL      0.241612
    128 C40        10.3180   -1.2070    1.4640 c         1 MOL      0.481773
    129 O19        10.8400   -1.1310    2.5980 o         1 MOL     -0.538001
    130 C41        10.4900   -3.3300    0.2240 c3        1 MOL      0.219946
    131 C42        11.7890   -3.7490    0.9490 c3        1 MOL     -0.401273
    132 O20        10.8950   -2.6730   -0.9810 oh        1 MOL     -0.597546
    133 H60         8.4790   -1.8420   -0.7410 hn        1 MOL      0.317810
    134 H61         9.3490   -2.9950    1.9470 h1        1 MOL      0.073766
    135 H62         9.8930   -4.2010   -0.0500 h1        1 MOL      0.030065
    136 H63        11.2520   -3.2790   -1.6330 ho        1 MOL      0.392899
    137 H64        12.5330   -2.9540    0.8840 hc        1 MOL      0.113617
    138 H65        11.5480   -3.8800    2.0090 hc        1 MOL      0.113617
    139 H66        12.2310   -4.6520    0.5560 hc        1 MOL      0.113617
    140 N12        10.4230   -0.1830    0.5750 n         1 MOL     -0.284221
    141 C43        11.1500    1.0920    0.8130 c3        1 MOL     -0.090422
    142 C44        10.5040    2.2680    0.0120 c         1 MOL      0.455065
    143 O21        10.0520    2.0210   -1.1190 o         1 MOL     -0.484292
    144 C45        12.6600    0.8930    0.3700 c3        1 MOL     -0.144420
    145 C46        12.9340    0.8970   -1.1370 c3        1 MOL      0.061084
    146 C47        14.1750    0.0930   -1.3180 c3        1 MOL      0.050653
    147 C48        14.5030   -0.2140   -2.7550 c3        1 MOL      0.138532
    148 N13        15.8300   -0.7870   -2.9120 n4        1 MOL     -0.250363
    149 H67         9.9050   -0.2000   -0.2910 hn        1 MOL      0.237471
    150 H68        11.1890    1.3670    1.8590 h1        1 MOL      0.111670
    151 H69        13.0290   -0.0180    0.8230 hc        1 MOL      0.066048
    152 H70        13.3060    1.6740    0.7800 hc        1 MOL      0.066048
    153 H71        13.0560    1.8560   -1.6330 hc        1 MOL      0.017772
    154 H72        12.1710    0.2670   -1.6040 hc        1 MOL      0.017772
    155 H73        13.9760   -0.8700   -0.8400 hc        1 MOL     -0.016460
    156 H74        15.0150    0.6190   -0.8830 hc        1 MOL     -0.016460
    157 H75        14.3690    0.6290   -3.4260 hx        1 MOL      0.028595
    158 H76        13.7400   -0.9380   -3.0390 hx        1 MOL      0.028595
    159 H77        16.0760   -1.3050   -2.0730 hn        1 MOL      0.236523
    160 H78        15.9040   -1.4640   -3.6610 hn        1 MOL      0.236523
    161 H79        16.4520   -0.0000   -3.0550 hn        1 MOL      0.236523
    162 N14        10.4420    3.4180    0.5930 n         1 MOL     -0.334264
    163 C49        10.0550    4.6450   -0.2220 c3        1 MOL      0.023576
    164 C50         8.7370    4.5630   -0.9520 c         1 MOL      0.434982
    165 O22         8.7820    4.4570   -2.1870 o         1 MOL     -0.551761
    166 C51        10.2610    6.0250    0.5240 c3        1 MOL      0.020353
    167 C52         9.7560    7.2410   -0.2380 c3        1 MOL     -0.166612
    168 C53         9.8070    8.5000    0.6510 c         1 MOL      0.684278
    169 O23         8.9020    8.7420    1.5280 o         1 MOL     -0.640830
    170 O24        10.7580    9.2670    0.5100 o         1 MOL     -0.640830
    171 H80        10.8480    3.5960    1.5040 hn        1 MOL      0.257330
    172 H81        10.8410    4.7360   -0.9670 h1        1 MOL      0.082537
    173 H82        11.3130    6.2060    0.7480 hc        1 MOL      0.011649
    174 H83         9.7250    6.0500    1.4760 hc        1 MOL      0.011649
    175 H84         8.7790    7.1230   -0.7140 hc        1 MOL      0.031603
    176 H85        10.4060    7.3610   -1.1110 hc        1 MOL      0.031603
    177 N15         7.5690    4.4750   -0.3640 n         1 MOL     -0.267323
    178 C54         7.3180    4.3020    1.0530 c3        1 MOL     -0.079923
    179 H86         7.3690    5.2710    1.5510 h1        1 MOL      0.059592
    180 H87         6.3260    3.8730    1.1970 h1        1 MOL      0.059592
    181 H88         8.0680    3.6350    1.4780 h1        1 MOL      0.059592
    182 H89         6.8190    4.4280   -1.0360 hn        1 MOL      0.264046
    183 Ca1        -6.1660    5.2440    0.3290 Ca        1 MOL      1.783853
    184 O25        -6.9730    3.7310    2.3940 oh        1 MOL     -1.077077
    185 H90        -7.0010    3.6390    3.3430 ho        1 MOL      0.494193
    186 H91        -7.7700    3.2740    2.1020 ho        1 MOL      0.494193
    187 O26        -7.1350    6.9820   -1.5770 oh        1 MOL     -1.077077
    188 H92        -8.0660    6.7980   -1.5180 ho        1 MOL      0.494193
    189 H93        -7.0580    7.6900   -2.2190 ho        1 MOL      0.494193
@<TRIPOS>BOND
     1    1    2 1   
     2    1    4 1   
     3    1    5 1   
     4    1    6 1   
     5    2    3 2   
     6    2    7 1   
     7    7    8 1   
     8    7   15 1   
     9    8    9 1   
    10    8   11 1   
    11    8   16 1   
    12    9   10 2   
    13    9   19 1   
    14   11   12 1   
    15   11   17 1   
    16   11   18 1   
    17   12   13 1   
    18   12   14 1   
    19   19   20 1   
    20   19   28 1   
    21   20   21 1   
    22   20   23 1   
    23   20   29 1   
    24   21   22 2   
    25   21   41 1   
    26   23   24 1   
    27   23   30 1   
    28   23   31 1   
    29   24   25 1   
    30   24   32 1   
    31   24   33 1   
    32   25   26 1   
    33   25   34 1   
    34   25   35 1   
    35   26   27 1   
    36   26   36 1   
    37   26   37 1   
    38   27   38 1   
    39   27   39 1   
    40   27   40 1   
    41   41   42 1   
    42   41   49 1   
    43   42   43 1   
    44   42   45 1   
    45   42   50 1   
    46   43   44 2   
    47   43   53 1   
    48   45   46 1   
    49   45   51 1   
    50   45   52 1   
    51   46   47 1   
    52   46   48 1   
    53   53   54 1   
    54   53   57 1   
    55   54   55 1   
    56   54   58 1   
    57   54   59 1   
    58   55   56 2   
    59   55   60 1   
    60   60   61 1   
    61   60   68 1   
    62   61   62 1   
    63   61   64 1   
    64   61   69 1   
    65   62   63 2   
    66   62   72 1   
    67   64   65 1   
    68   64   70 1   
    69   64   71 1   
    70   65   66 1   
    71   65   67 1   
    72   72   73 1   
    73   72   76 1   
    74   73   74 1   
    75   73   77 1   
    76   73   78 1   
    77   74   75 2   
    78   74   79 1   
    79   79   80 1   
    80   79   86 1   
    81   80   81 1   
    82   80   83 1   
    83   80   87 1   
    84   81   82 2   
    85   81   93 1   
    86   83   84 1   
    87   83   85 1   
    88   83   88 1   
    89   84   90 1   
    90   84   91 1   
    91   84   92 1   
    92   85   89 1   
    93   93   94 1   
    94   93  101 1   
    95   94   95 1   
    96   94   97 1   
    97   94  102 1   
    98   95   96 2   
    99   95  112 1   
   100   97   98 1   
   101   97   99 1   
   102   97  103 1   
   103   98  100 1   
   104   98  104 1   
   105   98  105 1   
   106   99  106 1   
   107   99  107 1   
   108   99  108 1   
   109  100  109 1   
   110  100  110 1   
   111  100  111 1   
   112  112  113 1   
   113  112  119 1   
   114  113  114 1   
   115  113  116 1   
   116  113  120 1   
   117  114  115 2   
   118  114  126 1   
   119  116  117 1   
   120  116  118 1   
   121  116  121 1   
   122  117  123 1   
   123  117  124 1   
   124  117  125 1   
   125  118  122 1   
   126  126  127 1   
   127  126  133 1   
   128  127  128 1   
   129  127  130 1   
   130  127  134 1   
   131  128  129 2   
   132  128  140 1   
   133  130  131 1   
   134  130  132 1   
   135  130  135 1   
   136  131  137 1   
   137  131  138 1   
   138  131  139 1   
   139  132  136 1   
   140  140  141 1   
   141  140  149 1   
   142  141  142 1   
   143  141  144 1   
   144  141  150 1   
   145  142  143 2   
   146  142  162 1   
   147  144  145 1   
   148  144  151 1   
   149  144  152 1   
   150  145  146 1   
   151  145  153 1   
   152  145  154 1   
   153  146  147 1   
   154  146  155 1   
   155  146  156 1   
   156  147  148 1   
   157  147  157 1   
   158  147  158 1   
   159  148  159 1   
   160  148  160 1   
   161  148  161 1   
   162  162  163 1   
   163  162  171 1   
   164  163  164 1   
   165  163  166 1   
   166  163  172 1   
   167  164  165 2   
   168  164  177 1   
   169  166  167 1   
   170  166  173 1   
   171  166  174 1   
   172  167  168 1   
   173  167  175 1   
   174  167  176 1   
   175  168  169 1   
   176  168  170 1   
   177  177  178 1   
   178  177  182 1   
   179  178  179 1   
   180  178  180 1   
   181  178  181 1   
   182  184  185 1   
   183  184  186 1   
   184  187  188 1   
   185  187  189 1   
@<TRIPOS>SUBSTRUCTURE
     1 MOL         1 TEMP              0 ****  ****    0 ROOT
