@<TRIPOS>MOLECULE
MOL
  189   185     1     0     0
SMALL
resp


@<TRIPOS>ATOM
      1 C1         12.3230    6.1690   -2.0830 c3        1 MOL     -0.470347
      2 C2         12.1430    4.8400   -1.2900 c         1 MOL      0.708025
      3 O1         13.0160    4.0350   -1.3040 o         1 MOL     -0.591645
      4 H1         12.1740    5.9810   -3.1470 hc        1 MOL      0.123261
      5 H2         11.5920    6.9000   -1.7390 hc        1 MOL      0.123261
      6 H3         13.3280    6.5560   -1.9210 hc        1 MOL      0.123261
      7 N1         10.9980    4.5820   -0.6200 n         1 MOL     -0.102173
      8 C3         10.6350    3.3880    0.1850 c3        1 MOL     -0.528855
      9 C4          9.4150    2.5490   -0.4250 c         1 MOL      0.364434
     10 O2          8.4380    3.0950   -0.9570 o         1 MOL     -0.371733
     11 C5         10.3890    3.6940    1.6610 c3        1 MOL      0.243823
     12 C6          9.3780    4.8000    1.8380 c         1 MOL      0.760656
     13 O3          8.7730    5.3820    0.8630 o         1 MOL     -0.744551
     14 O4          9.2120    5.1700    3.0100 o         1 MOL     -0.744551
     15 H4         10.3550    5.3610   -0.5630 hn        1 MOL      0.019250
     16 H5         11.4680    2.6910    0.1630 h1        1 MOL      0.158726
     17 H6         11.3570    3.9200    2.1090 hc        1 MOL     -0.016395
     18 H7          9.9510    2.8380    2.1690 hc        1 MOL     -0.016395
     19 N2          9.5250    1.2280   -0.3340 n         1 MOL     -0.131858
     20 C7          8.4910    0.3720   -0.9310 c3        1 MOL     -0.254553
     21 C8          7.0810    0.4560   -0.3230 c         1 MOL      0.263344
     22 O5          7.0020    0.7220    0.8720 o         1 MOL     -0.450870
     23 C9          9.0220   -0.9860   -1.1710 c3        1 MOL     -0.071704
     24 C10         8.9370   -1.8450    0.1250 c3        1 MOL     -0.261812
     25 C11         9.6940   -3.1140   -0.0260 c3        1 MOL      0.234707
     26 C12         9.7550   -3.6880    1.3990 c3        1 MOL     -0.013569
     27 N3         10.6920   -4.8150    1.5250 n4        1 MOL     -0.286733
     28 H8         10.3610    0.7220   -0.0950 hn        1 MOL      0.245169
     29 H9          8.3590    0.7340   -1.9550 h1        1 MOL      0.149914
     30 H10        10.0250   -1.0080   -1.5770 hc        1 MOL      0.084452
     31 H11         8.5770   -1.5320   -2.0020 hc        1 MOL      0.084452
     32 H12         7.9220   -2.2290    0.2650 hc        1 MOL      0.113972
     33 H13         9.2940   -1.2160    0.9410 hc        1 MOL      0.113972
     34 H14        10.7340   -2.9440   -0.3300 hc        1 MOL     -0.037429
     35 H15         9.2490   -3.8060   -0.7290 hc        1 MOL     -0.037429
     36 H16         8.7220   -3.9740    1.6070 hx        1 MOL      0.082190
     37 H17        10.0790   -2.8830    2.0530 hx        1 MOL      0.082190
     38 H18        10.4300   -5.5250    0.8450 hn        1 MOL      0.264193
     39 H19        11.6030   -4.4220    1.3080 hn        1 MOL      0.264193
     40 H20        10.6880   -5.2100    2.4540 hn        1 MOL      0.264193
     41 N4          6.0250    0.0920   -1.1180 n         1 MOL     -0.197464
     42 C13         4.6160    0.0060   -0.7130 c3        1 MOL      0.251614
     43 C14         3.8910   -1.1910   -1.3320 c         1 MOL      0.201175
     44 O6          4.1940   -1.4120   -2.4800 o         1 MOL     -0.497578
     45 C15         3.8030    1.2800   -0.9970 c3        1 MOL     -0.053986
     46 C16         4.5560    2.5550   -0.6930 c         1 MOL      0.591440
     47 O7          5.1720    3.2430   -1.5590 o         1 MOL     -0.744749
     48 O8          4.6880    2.9290    0.5270 o         1 MOL     -0.744749
     49 H21         6.2140   -0.1900   -2.0650 hn        1 MOL      0.234425
     50 H22         4.5660   -0.1340    0.3620 h1        1 MOL      0.047092
     51 H23         2.8740    1.2560   -0.4330 hc        1 MOL      0.039192
     52 H24         3.6820    1.3560   -2.0780 hc        1 MOL      0.039192
     53 N5          2.9080   -1.9050   -0.6730 n         1 MOL     -0.013923
     54 C17         2.5700   -1.9040    0.7150 c3        1 MOL     -0.274825
     55 C18         2.4930   -3.2790    1.3780 c         1 MOL      0.735296
     56 O9          2.8950   -4.2490    0.7960 o         1 MOL     -0.597498
     57 H25         2.4680   -2.6470   -1.1960 hn        1 MOL      0.074826
     58 H26         1.5800   -1.4750    0.7890 h1        1 MOL      0.082164
     59 H27         3.3640   -1.4180    1.2880 h1        1 MOL      0.082164
     60 N6          2.0080   -3.3580    2.5740 n         1 MOL     -0.515234
     61 C19         1.8100   -4.6160    3.2930 c3        1 MOL      0.054209
     62 C20         0.5870   -5.4000    2.7150 c         1 MOL      0.520038
     63 O10        -0.5590   -4.9390    2.7750 o         1 MOL     -0.528420
     64 C21         1.5820   -4.3200    4.7820 c3        1 MOL     -0.284558
     65 C22         1.6420   -5.6440    5.6820 c         1 MOL      0.716826
     66 O11         1.4990   -6.7770    5.2390 o         1 MOL     -0.643965
     67 O12         1.8550   -5.4420    6.8970 o         1 MOL     -0.643965
     68 H28         1.6680   -2.5370    3.0580 hn        1 MOL      0.319710
     69 H29         2.6660   -5.2670    3.1390 h1        1 MOL      0.035702
     70 H30         0.5720   -3.9040    4.8580 hc        1 MOL      0.079674
     71 H31         2.1860   -3.4560    5.0890 hc        1 MOL      0.079674
     72 N7          0.8380   -6.4920    2.0050 n         1 MOL     -0.285700
     73 C23        -0.2900   -7.2370    1.4070 c3        1 MOL     -0.298174
     74 C24        -0.7340   -6.6740    0.0160 c         1 MOL      0.507277
     75 O13        -1.9150   -6.7330   -0.3260 o         1 MOL     -0.558813
     76 H32         1.7680   -6.8740    1.9050 hn        1 MOL      0.253698
     77 H33        -1.1370   -7.2720    2.0950 h1        1 MOL      0.156080
     78 H34         0.0930   -8.2580    1.2830 h1        1 MOL      0.156080
     79 N8          0.1290   -5.9480   -0.6290 n         1 MOL     -0.222625
     80 C25        -0.2670   -5.1500   -1.7900 c3        1 MOL      0.052390
     81 C26        -0.6120   -3.6790   -1.3940 c         1 MOL      0.436442
     82 O14        -0.0950   -3.0840   -0.4280 o         1 MOL     -0.450352
     83 C27         0.6550   -5.2860   -2.9800 c3        1 MOL      0.281937
     84 C28         2.0020   -4.6470   -2.8310 c3        1 MOL     -0.436034
     85 O15         0.7160   -6.6200   -3.4530 oh        1 MOL     -0.638406
     86 H35         1.0800   -5.9240   -0.2710 hn        1 MOL      0.230314
     87 H36        -1.2010   -5.5650   -2.1840 h1        1 MOL      0.054960
     88 H37         0.2340   -4.7670   -3.8460 h1        1 MOL      0.002181
     89 H38         1.0940   -6.5590   -4.3330 ho        1 MOL      0.411381
     90 H39         2.4000   -4.3910   -3.8130 hc        1 MOL      0.131990
     91 H40         1.9080   -3.6960   -2.2990 hc        1 MOL      0.131990
     92 H41         2.6080   -5.3540   -2.2620 hc        1 MOL      0.131990
     93 N9         -1.3710   -2.9200   -2.2140 n         1 MOL     -0.322520
     94 C29        -1.6790   -1.5020   -1.8940 c3        1 MOL     -0.255090
     95 C30        -3.1590   -1.4130   -1.2600 c         1 MOL      0.704813
     96 O16        -3.5400   -0.5290   -0.5750 o         1 MOL     -0.555971
     97 C31        -1.7180   -0.6500   -3.1920 c3        1 MOL      0.134252
     98 C32        -0.4310   -0.9230   -4.1140 c3        1 MOL     -0.183308
     99 C33        -1.7000    0.8880   -2.8870 c3        1 MOL     -0.395633
    100 C34         0.9100   -0.7520   -3.4540 c3        1 MOL      0.074120
    101 H42        -1.9500   -3.1970   -2.9930 hn        1 MOL      0.252201
    102 H43        -0.9810   -1.0620   -1.1870 h1        1 MOL      0.158271
    103 H44        -2.6450   -0.8570   -3.7200 hc        1 MOL      0.026630
    104 H45        -0.4390   -0.2270   -4.9520 hc        1 MOL      0.033792
    105 H46        -0.4870   -1.9480   -4.4590 hc        1 MOL      0.033792
    106 H47        -2.7220    1.0830   -2.5440 hc        1 MOL      0.114532
    107 H48        -1.0350    1.2930   -2.1230 hc        1 MOL      0.114532
    108 H49        -1.3680    1.4720   -3.7440 hc        1 MOL      0.114532
    109 H50         1.0580   -1.5600   -2.7400 hc        1 MOL      0.008716
    110 H51         1.7040   -0.8810   -4.1910 hc        1 MOL      0.008716
    111 H52         0.9810    0.2190   -2.9580 hc        1 MOL      0.008716
    112 N10        -3.9070   -2.4500   -1.5140 n         1 MOL     -0.433256
    113 C35        -5.2160   -2.6750   -0.7540 c3        1 MOL     -0.082456
    114 C36        -6.5470   -2.4280   -1.6300 c         1 MOL      0.684519
    115 O17        -6.3750   -2.4700   -2.8590 o         1 MOL     -0.544818
    116 C37        -5.2590   -4.0450   -0.0280 c3        1 MOL      0.275113
    117 C38        -3.9520   -4.4910    0.5580 c3        1 MOL     -0.184585
    118 O18        -6.2640   -4.0780    0.9990 oh        1 MOL     -0.688173
    119 H53        -3.5340   -3.1240   -2.1690 hn        1 MOL      0.247381
    120 H54        -5.2760   -1.9650    0.0740 h1        1 MOL      0.164291
    121 H55        -5.5640   -4.8320   -0.7150 h1        1 MOL     -0.019444
    122 H56        -6.3680   -4.9700    1.3340 ho        1 MOL      0.427446
    123 H57        -3.9730   -5.5320    0.8730 hc        1 MOL      0.082784
    124 H58        -3.1270   -4.2100   -0.0960 hc        1 MOL      0.082784
    125 H59        -3.8170   -3.8900    1.4680 hc        1 MOL      0.082784
    126 N11        -7.6980   -2.0490   -1.0400 n         1 MOL     -0.747406
    127 C39        -8.8980   -1.6270   -1.8140 c3        1 MOL      0.145731
    128 C40        -9.1290   -0.1220   -1.7610 c         1 MOL      0.648005
    129 O19        -9.4340    0.5690   -2.7620 o         1 MOL     -0.599334
    130 C41       -10.1140   -2.4110   -1.3050 c3        1 MOL      0.272573
    131 C42       -11.3650   -2.0260   -2.1420 c3        1 MOL     -0.224071
    132 O20       -10.3510   -2.0230    0.0010 oh        1 MOL     -0.609453
    133 H60        -7.7590   -2.1560   -0.0450 hn        1 MOL      0.353245
    134 H61        -8.7540   -2.0070   -2.8260 h1        1 MOL      0.049255
    135 H62        -9.9650   -3.4840   -1.4370 h1        1 MOL      0.034213
    136 H63       -10.0990   -2.8070    0.4830 ho        1 MOL      0.395107
    137 H64       -11.7470   -1.0790   -1.7700 hc        1 MOL      0.055971
    138 H65       -11.2160   -1.9540   -3.2160 hc        1 MOL      0.055971
    139 H66       -12.1000   -2.8400   -2.0720 hc        1 MOL      0.055971
    140 N12        -8.9720    0.4940   -0.5580 n         1 MOL     -0.452407
    141 C43        -9.3000    1.9450   -0.3310 c3        1 MOL     -0.005354
    142 C44        -8.4330    2.4460    0.7600 c         1 MOL      0.574988
    143 O21        -8.1790    1.6410    1.7230 o         1 MOL     -0.526427
    144 C45       -10.8070    2.0400    0.0650 c3        1 MOL     -0.138084
    145 C46       -11.3420    3.3530    0.6310 c3        1 MOL     -0.060325
    146 C47       -12.8650    3.4280    0.5330 c3        1 MOL     -0.026064
    147 C48       -13.2930    4.6120    1.3960 c3        1 MOL      0.062374
    148 N13       -14.7500    4.8200    1.2380 n4        1 MOL     -0.148753
    149 H67        -8.7030   -0.0010    0.2840 hn        1 MOL      0.279916
    150 H68        -9.1370    2.5040   -1.2470 h1        1 MOL      0.103037
    151 H69       -11.0490    1.3360    0.8670 hc        1 MOL      0.089959
    152 H70       -11.3540    1.6360   -0.7850 hc        1 MOL      0.089959
    153 H71       -10.9040    4.1680    0.0620 hc        1 MOL      0.050351
    154 H72       -11.0700    3.4160    1.6850 hc        1 MOL      0.050351
    155 H73       -13.3130    2.4940    0.8860 hc        1 MOL      0.024748
    156 H74       -13.1590    3.5640   -0.5060 hc        1 MOL      0.024748
    157 H75       -12.7890    5.5280    1.0760 hx        1 MOL      0.075181
    158 H76       -13.0530    4.4780    2.4430 hx        1 MOL      0.075181
    159 H77       -15.2610    4.2120    1.8520 hn        1 MOL      0.219795
    160 H78       -15.0480    5.7730    1.3480 hn        1 MOL      0.219795
    161 H79       -15.0820    4.5070    0.3370 hn        1 MOL      0.219795
    162 N14        -8.0010    3.7000    0.6180 n         1 MOL     -0.607576
    163 C49        -6.8360    4.2680    1.3260 c3        1 MOL      0.413683
    164 C50        -5.4320    3.9400    0.8230 c         1 MOL      0.317567
    165 O22        -4.6990    3.4760    1.6350 o         1 MOL     -0.532124
    166 C51        -7.0310    5.8250    1.3460 c3        1 MOL      0.090794
    167 C52        -6.0390    6.6370    2.2180 c3        1 MOL     -0.117361
    168 C53        -6.5460    8.0490    2.5800 c         1 MOL      0.734086
    169 O23        -6.4140    8.3490    3.7530 o         1 MOL     -0.682939
    170 O24        -7.0710    8.7890    1.7120 o         1 MOL     -0.682939
    171 H80        -8.5160    4.3240    0.0120 hn        1 MOL      0.293048
    172 H81        -6.9720    4.0170    2.3770 h1        1 MOL      0.006308
    173 H82        -8.0570    5.9580    1.6860 hc        1 MOL     -0.076504
    174 H83        -7.0150    6.1770    0.3170 hc        1 MOL     -0.076504
    175 H84        -5.0900    6.7490    1.6990 hc        1 MOL      0.008723
    176 H85        -5.9290    6.0190    3.1090 hc        1 MOL      0.008723
    177 N15        -5.0520    4.0430   -0.4170 n         1 MOL     -0.209152
    178 C54        -5.7770    4.6000   -1.5860 c3        1 MOL     -0.238111
    179 H86        -5.3360    4.2130   -2.5050 h1        1 MOL      0.101026
    180 H87        -6.8260    4.3090   -1.5370 h1        1 MOL      0.101026
    181 H88        -5.7000    5.6880   -1.5780 h1        1 MOL      0.101026
    182 H89        -4.0840    3.7760   -0.5040 hn        1 MOL      0.251567
    183 Ca1         6.4310    4.9860   -0.0960 Ca        1 MOL      1.702887
    184 O25         7.3240    5.3990   -2.7810 oh        1 MOL     -0.813447
    185 H90         7.2910    6.2900   -2.4460 ho        1 MOL      0.407623
    186 H91         7.8550    5.4470   -3.5710 ho        1 MOL      0.407623
    187 O26         6.9610    3.2130    1.8450 oh        1 MOL     -0.813447
    188 H92         6.9530    2.3170    1.5080 ho        1 MOL      0.407623
    189 H93         6.9310    3.1170    2.7980 ho        1 MOL      0.407623
@<TRIPOS>BOND
     1    1    2 1   
     2    1    4 1   
     3    1    5 1   
     4    1    6 1   
     5    2    3 2   
     6    2    7 1   
     7    7    8 1   
     8    7   15 1   
     9    8    9 1   
    10    8   11 1   
    11    8   16 1   
    12    9   10 2   
    13    9   19 1   
    14   11   12 1   
    15   11   17 1   
    16   11   18 1   
    17   12   13 1   
    18   12   14 1   
    19   19   20 1   
    20   19   28 1   
    21   20   21 1   
    22   20   23 1   
    23   20   29 1   
    24   21   22 2   
    25   21   41 1   
    26   23   24 1   
    27   23   30 1   
    28   23   31 1   
    29   24   25 1   
    30   24   32 1   
    31   24   33 1   
    32   25   26 1   
    33   25   34 1   
    34   25   35 1   
    35   26   27 1   
    36   26   36 1   
    37   26   37 1   
    38   27   38 1   
    39   27   39 1   
    40   27   40 1   
    41   41   42 1   
    42   41   49 1   
    43   42   43 1   
    44   42   45 1   
    45   42   50 1   
    46   43   44 2   
    47   43   53 1   
    48   45   46 1   
    49   45   51 1   
    50   45   52 1   
    51   46   47 1   
    52   46   48 1   
    53   53   54 1   
    54   53   57 1   
    55   54   55 1   
    56   54   58 1   
    57   54   59 1   
    58   55   56 2   
    59   55   60 1   
    60   60   61 1   
    61   60   68 1   
    62   61   62 1   
    63   61   64 1   
    64   61   69 1   
    65   62   63 2   
    66   62   72 1   
    67   64   65 1   
    68   64   70 1   
    69   64   71 1   
    70   65   66 1   
    71   65   67 1   
    72   72   73 1   
    73   72   76 1   
    74   73   74 1   
    75   73   77 1   
    76   73   78 1   
    77   74   75 2   
    78   74   79 1   
    79   79   80 1   
    80   79   86 1   
    81   80   81 1   
    82   80   83 1   
    83   80   87 1   
    84   81   82 2   
    85   81   93 1   
    86   83   84 1   
    87   83   85 1   
    88   83   88 1   
    89   84   90 1   
    90   84   91 1   
    91   84   92 1   
    92   85   89 1   
    93   93   94 1   
    94   93  101 1   
    95   94   95 1   
    96   94   97 1   
    97   94  102 1   
    98   95   96 2   
    99   95  112 1   
   100   97   98 1   
   101   97   99 1   
   102   97  103 1   
   103   98  100 1   
   104   98  104 1   
   105   98  105 1   
   106   99  106 1   
   107   99  107 1   
   108   99  108 1   
   109  100  109 1   
   110  100  110 1   
   111  100  111 1   
   112  112  113 1   
   113  112  119 1   
   114  113  114 1   
   115  113  116 1   
   116  113  120 1   
   117  114  115 2   
   118  114  126 1   
   119  116  117 1   
   120  116  118 1   
   121  116  121 1   
   122  117  123 1   
   123  117  124 1   
   124  117  125 1   
   125  118  122 1   
   126  126  127 1   
   127  126  133 1   
   128  127  128 1   
   129  127  130 1   
   130  127  134 1   
   131  128  129 2   
   132  128  140 1   
   133  130  131 1   
   134  130  132 1   
   135  130  135 1   
   136  131  137 1   
   137  131  138 1   
   138  131  139 1   
   139  132  136 1   
   140  140  141 1   
   141  140  149 1   
   142  141  142 1   
   143  141  144 1   
   144  141  150 1   
   145  142  143 2   
   146  142  162 1   
   147  144  145 1   
   148  144  151 1   
   149  144  152 1   
   150  145  146 1   
   151  145  153 1   
   152  145  154 1   
   153  146  147 1   
   154  146  155 1   
   155  146  156 1   
   156  147  148 1   
   157  147  157 1   
   158  147  158 1   
   159  148  159 1   
   160  148  160 1   
   161  148  161 1   
   162  162  163 1   
   163  162  171 1   
   164  163  164 1   
   165  163  166 1   
   166  163  172 1   
   167  164  165 2   
   168  164  177 1   
   169  166  167 1   
   170  166  173 1   
   171  166  174 1   
   172  167  168 1   
   173  167  175 1   
   174  167  176 1   
   175  168  169 1   
   176  168  170 1   
   177  177  178 1   
   178  177  182 1   
   179  178  179 1   
   180  178  180 1   
   181  178  181 1   
   182  184  185 1   
   183  184  186 1   
   184  187  188 1   
   185  187  189 1   
@<TRIPOS>SUBSTRUCTURE
     1 MOL         1 TEMP              0 ****  ****    0 ROOT
