@<TRIPOS>MOLECULE
MOL
  192   187     1     0     0
SMALL
resp


@<TRIPOS>ATOM
      1 C1         11.4260    5.0790   -2.7620 c3        1 MOL     -0.397214
      2 C2         11.3060    3.8350   -1.7970 c         1 MOL      0.572706
      3 O1         12.2340    2.9750   -1.8960 o         1 MOL     -0.594144
      4 H1         12.4630    5.1910   -3.0800 hc        1 MOL      0.109414
      5 H2         10.7920    4.9240   -3.6350 hc        1 MOL      0.109414
      6 H3         11.1070    5.9790   -2.2360 hc        1 MOL      0.109414
      7 N1         10.3390    3.7580   -0.9250 n         1 MOL     -0.101181
      8 C3         10.0150    2.6920    0.0920 c3        1 MOL     -0.346025
      9 C4          8.6910    1.9350   -0.1910 c         1 MOL      0.447368
     10 O2          7.7950    2.4250   -0.8280 o         1 MOL     -0.547938
     11 C5          9.9850    3.4110    1.4610 c3        1 MOL      0.255675
     12 C6          9.0170    4.6660    1.5850 c         1 MOL      0.568018
     13 O3          9.0160    5.2500    2.7130 o         1 MOL     -0.664659
     14 O4          8.3050    5.0370    0.6120 o         1 MOL     -0.664659
     15 H4          9.7450    4.5890   -0.9410 hn        1 MOL      0.031654
     16 H5         10.8150    1.9580    0.1240 h1        1 MOL      0.103676
     17 H6         10.9790    3.7710    1.7190 hc        1 MOL     -0.014659
     18 H7          9.7310    2.6480    2.2010 hc        1 MOL     -0.014659
     19 N2          8.5980    0.6770    0.2480 n         1 MOL     -0.156541
     20 C7          7.6660   -0.3360   -0.1850 c3        1 MOL     -0.068207
     21 C8          6.4010   -0.4470    0.6870 c         1 MOL      0.498640
     22 O5          6.4870   -1.1300    1.7070 o         1 MOL     -0.481330
     23 C9          8.3080   -1.7470   -0.3300 c3        1 MOL     -0.305648
     24 C10         7.4220   -2.5470   -1.3150 c3        1 MOL      0.348402
     25 C11         8.2930   -3.7470   -1.7630 c3        1 MOL     -0.238946
     26 C12         7.5770   -4.4850   -2.8690 c3        1 MOL      0.150065
     27 N3          8.1790   -5.8080   -3.3060 n4        1 MOL     -0.324468
     28 H8          9.3380    0.3470    0.8500 hn        1 MOL      0.252296
     29 H9          7.3760    0.0700   -1.1580 h1        1 MOL      0.122202
     30 H10         8.3030   -2.2870    0.6170 hc        1 MOL      0.099129
     31 H11         9.2740   -1.7120   -0.8190 hc        1 MOL      0.099129
     32 H12         7.1970   -1.9040   -2.1650 hc        1 MOL     -0.055765
     33 H13         6.4720   -2.7260   -0.8240 hc        1 MOL     -0.055765
     34 H14         8.3600   -4.3870   -0.8880 hc        1 MOL      0.076193
     35 H15         9.2940   -3.3950   -2.0430 hc        1 MOL      0.076193
     36 H16         7.5320   -3.8420   -3.7510 hx        1 MOL      0.025605
     37 H17         6.5950   -4.6880   -2.4490 hx        1 MOL      0.025605
     38 H18         9.1500   -5.5760   -3.3990 hn        1 MOL      0.289321
     39 H19         8.1460   -6.4580   -2.5400 hn        1 MOL      0.289321
     40 H20         7.7650   -6.2050   -4.1410 hn        1 MOL      0.289321
     41 N4          5.4000    0.4350    0.5340 n         1 MOL     -0.458019
     42 C13         4.1350    0.4210    1.3100 c3        1 MOL      0.379609
     43 C14         2.8830    0.3010    0.4180 c         1 MOL      0.287614
     44 O6          2.9230    0.7850   -0.6860 o         1 MOL     -0.558260
     45 C15         4.0250    1.6430    2.2870 c3        1 MOL     -0.410380
     46 C16         4.5430    2.9530    1.6550 c         1 MOL      0.906068
     47 O7          5.7770    3.1910    1.6000 o         1 MOL     -0.778073
     48 O8          3.7940    3.8390    1.1290 o         1 MOL     -0.778073
     49 H21         5.5310    1.1830   -0.1220 hn        1 MOL      0.157977
     50 H22         4.0850   -0.4910    1.9070 h1        1 MOL      0.059012
     51 H23         4.6370    1.4070    3.1660 hc        1 MOL      0.113275
     52 H24         2.9860    1.7880    2.5960 hc        1 MOL      0.113275
     53 N5          1.7370   -0.1670    0.8850 n         1 MOL     -0.222698
     54 C17         1.4990   -0.8410    2.2090 c3        1 MOL     -0.148713
     55 C18         2.2930   -2.1300    2.3570 c         1 MOL      0.409201
     56 O9          2.9010   -2.7350    1.4860 o         1 MOL     -0.531935
     57 H25         1.0120   -0.3970    0.2250 hn        1 MOL      0.207382
     58 H26         0.4650   -1.1810    2.2870 h1        1 MOL      0.106606
     59 H27         1.5790   -0.1470    3.0520 h1        1 MOL      0.106606
     60 N6          2.1500   -2.7330    3.5220 n         1 MOL     -0.313949
     61 C19         2.7510   -4.0820    3.8110 c3        1 MOL      0.151679
     62 C20         2.3120   -5.2110    2.7690 c         1 MOL      0.461121
     63 O10         3.1330   -5.9300    2.2850 o         1 MOL     -0.524495
     64 C21         2.3230   -4.4790    5.2390 c3        1 MOL     -0.070956
     65 C22         2.6850   -3.4640    6.3670 c         1 MOL      0.681589
     66 O11         2.5730   -2.2290    6.2130 o         1 MOL     -0.657917
     67 O12         3.3060   -3.9690    7.3390 o         1 MOL     -0.657917
     68 H28         1.4890   -2.2880    4.1530 hn        1 MOL      0.220882
     69 H29         3.8330   -4.0860    3.8810 h1        1 MOL      0.076034
     70 H30         2.8130   -5.4290    5.4490 hc        1 MOL     -0.023221
     71 H31         1.2390   -4.5820    5.2840 hc        1 MOL     -0.023221
     72 N7          1.0300   -5.3450    2.4850 n         1 MOL     -0.405715
     73 C23         0.4690   -6.2600    1.4750 c3        1 MOL      0.092027
     74 C24         0.6380   -5.9210   -0.0390 c         1 MOL      0.401887
     75 O13         0.3470   -6.6770   -0.9200 o         1 MOL     -0.518429
     76 H32         0.4220   -4.6750    2.9240 hn        1 MOL      0.292389
     77 H33        -0.6140   -6.2440    1.6480 h1        1 MOL      0.057539
     78 H34         0.6560   -7.3080    1.6810 h1        1 MOL      0.057539
     79 N8          1.0820   -4.6550   -0.2200 n         1 MOL     -0.140262
     80 C25         1.2390   -3.8410   -1.4360 c3        1 MOL      0.125243
     81 C26         0.5250   -2.4990   -1.3480 c         1 MOL      0.164336
     82 O14        -0.0180   -2.1350   -0.3100 o         1 MOL     -0.209414
     83 C27         2.6640   -3.4770   -1.8000 c3        1 MOL      0.403563
     84 C28         3.7220   -4.5740   -1.4920 c3        1 MOL     -0.425254
     85 O15         2.8680   -3.1610   -3.1360 oh        1 MOL     -0.669583
     86 H35         1.2780   -4.2010    0.6640 hn        1 MOL      0.016968
     87 H36         0.7370   -4.2940   -2.2970 h1        1 MOL      0.037712
     88 H37         3.0360   -2.6580   -1.1830 h1        1 MOL      0.004643
     89 H38         3.1780   -2.2540   -3.1400 ho        1 MOL      0.398879
     90 H39         3.3480   -5.5130   -1.9090 hc        1 MOL      0.122402
     91 H40         4.7120   -4.2910   -1.8300 hc        1 MOL      0.122402
     92 H41         3.7610   -4.7200   -0.4080 hc        1 MOL      0.122402
     93 N9          0.2280   -1.8890   -2.5180 n         1 MOL     -0.183938
     94 C29        -0.5340   -0.6190   -2.6380 c3        1 MOL     -0.219201
     95 C30        -1.8360   -0.6240   -1.8250 c         1 MOL      0.623020
     96 O16        -2.1250    0.3490   -1.1730 o         1 MOL     -0.513610
     97 C31        -0.8580   -0.2240   -4.1140 c3        1 MOL     -0.003409
     98 C32         0.4350   -0.0990   -4.9810 c3        1 MOL     -0.043358
     99 C33        -1.6180    1.1470   -4.2310 c3        1 MOL     -0.358689
    100 C34         1.5260    0.8410   -4.5040 c3        1 MOL     -0.030692
    101 H42         0.6250   -2.3540   -3.3220 hn        1 MOL      0.230200
    102 H43         0.1240    0.1500   -2.2120 h1        1 MOL      0.145306
    103 H44        -1.5650   -0.9790   -4.4760 hc        1 MOL      0.051142
    104 H45         0.2400    0.1370   -6.0310 hc        1 MOL      0.027532
    105 H46         0.9690   -1.0470   -4.9290 hc        1 MOL      0.027532
    106 H47        -2.6870    0.9590   -4.0920 hc        1 MOL      0.118863
    107 H48        -1.4020    1.8630   -3.4420 hc        1 MOL      0.118863
    108 H49        -1.3950    1.7240   -5.1270 hc        1 MOL      0.118863
    109 H50         1.2520    1.8770   -4.6930 hc        1 MOL      0.011486
    110 H51         1.6640    0.6540   -3.4430 hc        1 MOL      0.011486
    111 H52         2.4830    0.6490   -4.9810 hc        1 MOL      0.011486
    112 N10        -2.6760   -1.7390   -1.8680 n         1 MOL     -0.381588
    113 C35        -3.7770   -1.9640   -0.8870 c3        1 MOL     -0.114656
    114 C36        -5.0470   -2.5880   -1.5170 c         1 MOL      0.538295
    115 O17        -4.8380   -3.5470   -2.3550 o         1 MOL     -0.529145
    116 C37        -3.3990   -2.8710    0.3220 c3        1 MOL      0.451782
    117 C38        -2.7830   -4.2480    0.0960 c3        1 MOL     -0.209099
    118 O18        -2.3740   -2.3010    1.0360 oh        1 MOL     -0.606059
    119 H53        -2.5200   -2.5320   -2.4820 hn        1 MOL      0.246199
    120 H54        -4.0000   -0.9960   -0.4350 h1        1 MOL      0.097329
    121 H55        -4.2510   -3.0570    0.9830 h1        1 MOL      0.002583
    122 H56        -1.6290   -2.2110    0.4320 ho        1 MOL      0.246821
    123 H57        -2.4020   -4.6940    1.0050 hc        1 MOL      0.036362
    124 H58        -3.5300   -4.8860   -0.3750 hc        1 MOL      0.036362
    125 H59        -1.9660   -4.0760   -0.6110 hc        1 MOL      0.036362
    126 N11        -6.2320   -2.2360   -1.0600 n         1 MOL     -0.512566
    127 C39        -7.5250   -2.5340   -1.7090 c3        1 MOL      0.043749
    128 C40        -8.4040   -1.3370   -1.9360 c         1 MOL      0.652618
    129 O19        -8.8820   -1.1460   -3.0800 o         1 MOL     -0.571100
    130 C41        -8.2580   -3.6410   -0.8500 c3        1 MOL      0.270931
    131 C42        -9.6360   -4.0800   -1.2860 c3        1 MOL     -0.383311
    132 O20        -8.5300   -3.2190    0.4760 oh        1 MOL     -0.705101
    133 H60        -6.2570   -1.5000   -0.3650 hn        1 MOL      0.297065
    134 H61        -7.3730   -3.0100   -2.6780 h1        1 MOL      0.088745
    135 H62        -7.6040   -4.5050   -0.7650 h1        1 MOL      0.061138
    136 H63        -8.6550   -3.9080    1.1230 ho        1 MOL      0.450214
    137 H64       -10.3910   -3.2910   -1.2660 hc        1 MOL      0.099551
    138 H65        -9.5220   -4.4600   -2.2940 hc        1 MOL      0.099551
    139 H66        -9.9220   -4.8600   -0.5820 hc        1 MOL      0.099551
    140 N12        -8.6350   -0.5910   -0.8920 n         1 MOL     -0.544518
    141 C43        -9.6680    0.4470   -0.7440 c3        1 MOL      0.003454
    142 C44        -9.1830    1.4520    0.2720 c         1 MOL      0.601578
    143 O21        -8.8440    1.0840    1.3900 o         1 MOL     -0.539006
    144 C45       -10.9710   -0.1360   -0.2930 c3        1 MOL     -0.097289
    145 C46       -12.0200    0.9070   -0.4210 c3        1 MOL     -0.159080
    146 C47       -13.4440    0.3630   -0.2120 c3        1 MOL     -0.047617
    147 C48       -13.7310   -0.1100    1.2130 c3        1 MOL      0.090058
    148 N13       -15.1510   -0.5040    1.3490 n4        1 MOL     -0.252281
    149 H67        -8.2990   -0.8860    0.0160 hn        1 MOL      0.311197
    150 H68        -9.7640    0.9270   -1.7240 h1        1 MOL      0.100653
    151 H69       -10.8490   -0.5240    0.7120 hc        1 MOL      0.086299
    152 H70       -11.2120   -0.9340   -0.9950 hc        1 MOL      0.086299
    153 H71       -11.9860    1.3180   -1.4320 hc        1 MOL      0.088746
    154 H72       -11.8670    1.6270    0.3810 hc        1 MOL      0.088746
    155 H73       -13.6230   -0.4500   -0.9070 hc        1 MOL      0.039649
    156 H74       -14.2170    1.1170   -0.3580 hc        1 MOL      0.039649
    157 H75       -13.4490    0.6360    1.9420 hx        1 MOL      0.065924
    158 H76       -13.0770   -0.9640    1.4100 hx        1 MOL      0.065924
    159 H77       -15.3290   -0.7980    2.2990 hn        1 MOL      0.240591
    160 H78       -15.8650    0.1630    1.1170 hn        1 MOL      0.240591
    161 H79       -15.3560   -1.3560    0.8390 hn        1 MOL      0.240591
    162 N14        -9.2410    2.7780    0.0240 n         1 MOL     -0.468225
    163 C49        -8.8900    3.7380    1.0110 c3        1 MOL      0.407173
    164 C50        -7.3400    3.8690    1.2530 c         1 MOL      0.421757
    165 O22        -6.9110    3.7950    2.3800 o         1 MOL     -0.519984
    166 C51        -9.6610    5.0360    0.6070 c3        1 MOL     -0.158431
    167 C52        -9.5360    6.0960    1.7000 c3        1 MOL     -0.055887
    168 C53        -9.6500    7.5220    1.1150 c         1 MOL      0.663463
    169 O23       -10.7640    7.8980    0.7560 o         1 MOL     -0.645365
    170 O24        -8.6550    8.3200    1.2540 o         1 MOL     -0.645365
    171 H80        -9.7110    3.0720   -0.8140 hn        1 MOL      0.219526
    172 H81        -9.2840    3.5520    2.0110 h1        1 MOL     -0.039835
    173 H82       -10.7240    4.8360    0.4570 hc        1 MOL      0.019087
    174 H83        -9.2290    5.3780   -0.3240 hc        1 MOL      0.019087
    175 H84        -8.6200    5.9800    2.2710 hc        1 MOL      0.015028
    176 H85       -10.3760    5.9900    2.3990 hc        1 MOL      0.015028
    177 N15        -6.4620    4.1310    0.2740 n         1 MOL     -0.418919
    178 C54        -6.6880    4.2810   -1.1460 c3        1 MOL     -0.062638
    179 H86        -5.7310    4.2720   -1.6680 h1        1 MOL      0.056226
    180 H87        -7.3060    3.4580   -1.5050 h1        1 MOL      0.056226
    181 H88        -7.1950    5.2270   -1.3360 h1        1 MOL      0.056226
    182 H89        -5.5630    4.5150    0.5180 hn        1 MOL      0.324610
    183 Ca1         5.9120    4.8670   -0.4730 Ca        1 MOL      1.761411
    184 O25         3.5730    5.6820   -1.3650 oh        1 MOL     -0.866362
    185 H90         3.1640    6.3460   -0.8120 ho        1 MOL      0.432489
    186 H91         2.9130    4.9980   -1.4630 ho        1 MOL      0.432489
    187 O26         4.8810    2.8810   -1.8550 oh        1 MOL     -0.866362
    188 H92         3.9470    2.8380   -1.6300 ho        1 MOL      0.432489
    189 H93         5.0320    2.1130   -2.3960 ho        1 MOL      0.432489
    190 O27         5.3970    6.7600    1.3180 oh        1 MOL     -0.866362
    191 H94         6.0240    7.4720    1.2070 ho        1 MOL      0.432489
    192 H95         5.1220    6.8190    2.2280 ho        1 MOL      0.432489
@<TRIPOS>BOND
     1    1    2 1   
     2    1    4 1   
     3    1    5 1   
     4    1    6 1   
     5    2    3 2   
     6    2    7 1   
     7    7    8 1   
     8    7   15 1   
     9    8    9 1   
    10    8   11 1   
    11    8   16 1   
    12    9   10 2   
    13    9   19 1   
    14   11   12 1   
    15   11   17 1   
    16   11   18 1   
    17   12   13 1   
    18   12   14 1   
    19   19   20 1   
    20   19   28 1   
    21   20   21 1   
    22   20   23 1   
    23   20   29 1   
    24   21   22 2   
    25   21   41 1   
    26   23   24 1   
    27   23   30 1   
    28   23   31 1   
    29   24   25 1   
    30   24   32 1   
    31   24   33 1   
    32   25   26 1   
    33   25   34 1   
    34   25   35 1   
    35   26   27 1   
    36   26   36 1   
    37   26   37 1   
    38   27   38 1   
    39   27   39 1   
    40   27   40 1   
    41   41   42 1   
    42   41   49 1   
    43   42   43 1   
    44   42   45 1   
    45   42   50 1   
    46   43   44 2   
    47   43   53 1   
    48   45   46 1   
    49   45   51 1   
    50   45   52 1   
    51   46   47 1   
    52   46   48 1   
    53   53   54 1   
    54   53   57 1   
    55   54   55 1   
    56   54   58 1   
    57   54   59 1   
    58   55   56 2   
    59   55   60 1   
    60   60   61 1   
    61   60   68 1   
    62   61   62 1   
    63   61   64 1   
    64   61   69 1   
    65   62   63 2   
    66   62   72 1   
    67   64   65 1   
    68   64   70 1   
    69   64   71 1   
    70   65   66 1   
    71   65   67 1   
    72   72   73 1   
    73   72   76 1   
    74   73   74 1   
    75   73   77 1   
    76   73   78 1   
    77   74   75 2   
    78   74   79 1   
    79   79   80 1   
    80   79   86 1   
    81   80   81 1   
    82   80   83 1   
    83   80   87 1   
    84   81   82 2   
    85   81   93 1   
    86   83   84 1   
    87   83   85 1   
    88   83   88 1   
    89   84   90 1   
    90   84   91 1   
    91   84   92 1   
    92   85   89 1   
    93   93   94 1   
    94   93  101 1   
    95   94   95 1   
    96   94   97 1   
    97   94  102 1   
    98   95   96 2   
    99   95  112 1   
   100   97   98 1   
   101   97   99 1   
   102   97  103 1   
   103   98  100 1   
   104   98  104 1   
   105   98  105 1   
   106   99  106 1   
   107   99  107 1   
   108   99  108 1   
   109  100  109 1   
   110  100  110 1   
   111  100  111 1   
   112  112  113 1   
   113  112  119 1   
   114  113  114 1   
   115  113  116 1   
   116  113  120 1   
   117  114  115 2   
   118  114  126 1   
   119  116  117 1   
   120  116  118 1   
   121  116  121 1   
   122  117  123 1   
   123  117  124 1   
   124  117  125 1   
   125  118  122 1   
   126  126  127 1   
   127  126  133 1   
   128  127  128 1   
   129  127  130 1   
   130  127  134 1   
   131  128  129 2   
   132  128  140 1   
   133  130  131 1   
   134  130  132 1   
   135  130  135 1   
   136  131  137 1   
   137  131  138 1   
   138  131  139 1   
   139  132  136 1   
   140  140  141 1   
   141  140  149 1   
   142  141  142 1   
   143  141  144 1   
   144  141  150 1   
   145  142  143 2   
   146  142  162 1   
   147  144  145 1   
   148  144  151 1   
   149  144  152 1   
   150  145  146 1   
   151  145  153 1   
   152  145  154 1   
   153  146  147 1   
   154  146  155 1   
   155  146  156 1   
   156  147  148 1   
   157  147  157 1   
   158  147  158 1   
   159  148  159 1   
   160  148  160 1   
   161  148  161 1   
   162  162  163 1   
   163  162  171 1   
   164  163  164 1   
   165  163  166 1   
   166  163  172 1   
   167  164  165 2   
   168  164  177 1   
   169  166  167 1   
   170  166  173 1   
   171  166  174 1   
   172  167  168 1   
   173  167  175 1   
   174  167  176 1   
   175  168  169 1   
   176  168  170 1   
   177  177  178 1   
   178  177  182 1   
   179  178  179 1   
   180  178  180 1   
   181  178  181 1   
   182  184  185 1   
   183  184  186 1   
   184  187  188 1   
   185  187  189 1   
   186  190  191 1   
   187  190  192 1   
@<TRIPOS>SUBSTRUCTURE
     1 MOL         1 TEMP              0 ****  ****    0 ROOT
