@<TRIPOS>MOLECULE
MOL
  185   180     1     0     0
SMALL
resp


@<TRIPOS>ATOM
      1 C1         -5.3020    1.3460   -4.0110 c3        1 MOL     -0.369458
      2 C2         -6.2070    1.4490   -2.8050 c         1 MOL      0.664728
      3 O1         -5.7170    1.4560   -1.6460 o         1 MOL     -0.519067
      4 H1         -5.6660    0.5580   -4.6710 hc        1 MOL      0.099774
      5 H2         -5.2990    2.2950   -4.5460 hc        1 MOL      0.099774
      6 H3         -4.2890    1.1070   -3.6870 hc        1 MOL      0.099774
      7 N1         -7.4530    1.6620   -2.8690 n         1 MOL     -0.499140
      8 C3         -8.3650    1.9880   -1.7800 c3        1 MOL     -0.030225
      9 C4         -8.5950    0.8330   -0.7320 c         1 MOL      0.599054
     10 O2         -9.0660    1.1020    0.3590 o         1 MOL     -0.543046
     11 C5         -8.0960    3.4030   -1.1660 c3        1 MOL     -0.124820
     12 C6         -8.0960    4.5010   -2.1600 c         1 MOL      0.713488
     13 O3         -7.8430    5.6590   -1.7280 o         1 MOL     -0.666474
     14 O4         -8.5050    4.3730   -3.3610 o         1 MOL     -0.666474
     15 H4         -7.9060    1.8170   -3.7650 hn        1 MOL      0.288512
     16 H5         -9.3480    2.1140   -2.2150 h1        1 MOL      0.073382
     17 H6         -7.0960    3.3650   -0.7350 hc        1 MOL      0.054139
     18 H7         -8.7760    3.6140   -0.3330 hc        1 MOL      0.054139
     19 N2         -8.2430   -0.3560   -1.1590 n         1 MOL     -0.541648
     20 C7         -8.2670   -1.5660   -0.2760 c3        1 MOL      0.284306
     21 C8         -6.8850   -2.2440   -0.1710 c         1 MOL      0.327330
     22 O5         -6.6740   -3.3870    0.1880 o         1 MOL     -0.522467
     23 C9         -9.5200   -2.3690   -0.5620 c3        1 MOL     -0.016080
     24 C10        -9.8500   -3.3740    0.5440 c3        1 MOL      0.031797
     25 C11       -11.3860   -3.7720    0.5200 c3        1 MOL      0.031029
     26 C12       -11.7850   -4.9000    1.3800 c3        1 MOL     -0.053851
     27 N3        -11.5630   -4.7180    2.8140 n4        1 MOL     -0.091031
     28 H8         -7.8780   -0.4230   -2.0900 hn        1 MOL      0.254548
     29 H9         -8.5220   -1.2310    0.7230 h1        1 MOL      0.021926
     30 H10        -9.3750   -2.8770   -1.5210 hc        1 MOL      0.003172
     31 H11       -10.3380   -1.6840   -0.7330 hc        1 MOL      0.003172
     32 H12        -9.6350   -2.8900    1.5000 hc        1 MOL      0.001820
     33 H13        -9.1850   -4.2270    0.3970 hc        1 MOL      0.001820
     34 H14       -11.6200   -3.9920   -0.5220 hc        1 MOL      0.032901
     35 H15       -11.8630   -2.8520    0.8370 hc        1 MOL      0.032901
     36 H16       -11.1730   -5.7710    1.1410 hx        1 MOL      0.073619
     37 H17       -12.8420   -5.0760    1.1580 hx        1 MOL      0.073619
     38 H18       -11.3500   -5.6260    3.1910 hn        1 MOL      0.221950
     39 H19       -10.6830   -4.2620    3.0460 hn        1 MOL      0.221950
     40 H20       -12.3250   -4.3660    3.3650 hn        1 MOL      0.221950
     41 N4         -5.8200   -1.5020   -0.4960 n         1 MOL     -0.096801
     42 C13        -4.4230   -1.9650   -0.3800 c3        1 MOL     -0.309499
     43 C14        -3.9300   -2.3420    1.0530 c         1 MOL      0.636850
     44 O6         -4.4060   -1.7690    2.0160 o         1 MOL     -0.474553
     45 C15        -3.5290   -0.8060   -0.8940 c3        1 MOL     -0.375360
     46 C16        -1.9780   -1.0290   -1.0150 c         1 MOL      0.647688
     47 O7         -1.5410   -1.6200   -2.0270 o         1 MOL     -0.643108
     48 O8         -1.1710   -0.5860   -0.1710 o         1 MOL     -0.643108
     49 H21        -5.9260   -0.5390   -0.7990 hn        1 MOL      0.129576
     50 H22        -4.5070   -2.8270   -1.0290 h1        1 MOL      0.143374
     51 H23        -3.5920    0.0560   -0.2330 hc        1 MOL      0.187590
     52 H24        -3.8750   -0.4490   -1.8650 hc        1 MOL      0.187590
     53 N5         -2.9830   -3.3220    1.0920 n         1 MOL     -0.441814
     54 C17        -2.6520   -4.1420    2.3210 c3        1 MOL      0.047556
     55 C18        -1.9430   -3.3360    3.4050 c         1 MOL      0.465140
     56 O9         -2.4730   -3.2870    4.5270 o         1 MOL     -0.544993
     57 H25        -2.6540   -3.7290    0.2310 hn        1 MOL      0.280041
     58 H26        -1.9630   -4.9440    2.0360 h1        1 MOL      0.050717
     59 H27        -3.5110   -4.6400    2.7650 h1        1 MOL      0.050717
     60 N6         -0.8790   -2.6090    3.1130 n         1 MOL     -0.410820
     61 C19        -0.1210   -1.7780    4.0140 c3        1 MOL      0.209674
     62 C20        -0.6240   -0.3190    3.8740 c         1 MOL      0.296624
     63 O10        -0.0280    0.6060    4.4440 o         1 MOL     -0.504365
     64 C21         1.3700   -1.9020    3.8830 c3        1 MOL     -0.394612
     65 C22         1.9650   -1.3040    2.6200 c         1 MOL      0.901487
     66 N7          3.1760   -0.8860    2.7420 n         1 MOL     -0.872948
     67 O11         1.4210   -1.3410    1.5380 o         1 MOL     -0.712045
     68 H28        -0.6780   -2.5460    2.1280 hn        1 MOL      0.281784
     69 H29        -0.4290   -2.1130    5.0100 h1        1 MOL      0.092864
     70 H30         1.6810   -2.9460    3.8190 hc        1 MOL      0.110159
     71 H31         1.7820   -1.3730    4.7480 hc        1 MOL      0.110159
     72 H32         3.6960   -1.1940    3.5460 hn        1 MOL      0.367950
     73 H33         3.6470   -0.5550    1.9090 hn        1 MOL      0.367950
     74 N8         -1.7260    0.0220    3.1970 n         1 MOL     -0.008918
     75 C23        -2.2460    1.3180    3.0760 c3        1 MOL     -0.280033
     76 C24        -1.3580    2.2820    2.2450 c         1 MOL      0.633533
     77 O12        -1.2050    3.4390    2.7480 o         1 MOL     -0.560129
     78 H34        -2.4040   -0.6960    2.9600 hn        1 MOL      0.151164
     79 H35        -2.3190    1.8010    4.0490 h1        1 MOL      0.126582
     80 H36        -3.1790    1.2090    2.5170 h1        1 MOL      0.126582
     81 N9         -0.7630    1.8600    1.0760 n         1 MOL     -0.422992
     82 C25         0.0950    2.7010    0.1590 c3        1 MOL     -0.044073
     83 C26         1.4370    2.0490   -0.3520 c         1 MOL      0.877692
     84 O13         1.5030    0.8620   -0.6260 o         1 MOL     -0.604872
     85 C27        -0.8400    3.1660   -0.9610 c3        1 MOL     -0.122683
     86 C28        -1.9680    4.0790   -0.5830 ca        1 MOL     -0.001502
     87 C29        -1.7880    5.4470   -0.8190 ca        1 MOL     -0.084424
     88 C30        -3.1650    3.6140    0.0550 ca        1 MOL     -0.084424
     89 C31        -2.7820    6.3770   -0.5280 ca        1 MOL     -0.273205
     90 C32        -4.1470    4.5260    0.3810 ca        1 MOL     -0.273205
     91 C33        -3.9960    5.9150   -0.0120 ca        1 MOL      0.357884
     92 O14        -4.9830    6.8010    0.1830 oh        1 MOL     -0.450595
     93 H37        -0.9850    0.9130    0.7770 hn        1 MOL      0.172830
     94 H38         0.4340    3.5860    0.7050 h1        1 MOL      0.061736
     95 H39        -1.3020    2.2690   -1.3840 hc        1 MOL      0.041581
     96 H40        -0.1810    3.6130   -1.7050 hc        1 MOL      0.041581
     97 H41        -0.8270    5.7150   -1.2450 ha        1 MOL      0.091348
     98 H42        -3.2820    2.5540    0.2370 ha        1 MOL      0.091348
     99 H43        -2.5510    7.4200   -0.7220 ha        1 MOL      0.143534
    100 H44        -5.1210    4.1660    0.6990 ha        1 MOL      0.143534
    101 H45        -5.5450    6.3330    0.8060 ho        1 MOL      0.364154
    102 N10         2.4680    2.8890   -0.3570 n         1 MOL     -0.715720
    103 C34         3.8430    2.4920   -0.6610 c3        1 MOL      0.049584
    104 C35         4.7560    2.0800    0.5180 c         1 MOL      0.493886
    105 O15         5.1510    0.9250    0.6710 o         1 MOL     -0.408798
    106 C36         4.5020    3.5400   -1.6450 c3        1 MOL      0.018442
    107 C37         3.6770    3.7680   -2.9460 c3        1 MOL      0.194080
    108 C38         5.9830    3.2100   -1.9480 c3        1 MOL     -0.389939
    109 C39         3.6890    2.5730   -3.9260 c3        1 MOL     -0.193874
    110 H46         2.3480    3.8780   -0.1920 hn        1 MOL      0.355179
    111 H47         3.8290    1.6130   -1.3150 h1        1 MOL      0.035667
    112 H48         4.5310    4.4890   -1.0970 hc        1 MOL     -0.001975
    113 H49         3.9610    4.6890   -3.4590 hc        1 MOL     -0.025059
    114 H50         2.6340    3.9290   -2.6600 hc        1 MOL     -0.025059
    115 H51         6.0750    2.2750   -2.5070 hc        1 MOL      0.109084
    116 H52         6.4640    4.0320   -2.4820 hc        1 MOL      0.109084
    117 H53         6.5400    3.0020   -1.0350 hc        1 MOL      0.109084
    118 H54         3.0650    2.8170   -4.7840 hc        1 MOL      0.049403
    119 H55         4.6990    2.4620   -4.3100 hc        1 MOL      0.049403
    120 H56         3.2900    1.6760   -3.4380 hc        1 MOL      0.049403
    121 N11         5.0640    3.0490    1.3870 n         1 MOL     -0.399399
    122 C40         5.6640    2.7380    2.7250 c3        1 MOL     -0.100425
    123 C41         7.1230    2.3020    2.5820 c         1 MOL      0.293823
    124 O16         7.6320    1.6830    3.6030 o         1 MOL     -0.480895
    125 C42         5.4570    3.8550    3.7490 c3        1 MOL      0.166796
    126 O17         4.1120    4.2780    3.8020 oh        1 MOL     -0.573110
    127 H57         4.5990    3.9410    1.2900 hn        1 MOL      0.312991
    128 H58         5.1040    1.8910    3.1400 h1        1 MOL      0.146180
    129 H59         5.9950    4.7400    3.4240 h1        1 MOL      0.070610
    130 H60         5.8310    3.5300    4.7170 h1        1 MOL      0.070610
    131 H61         3.5920    3.5240    4.0790 ho        1 MOL      0.398756
    132 N12         7.7620    2.6490    1.4880 n         1 MOL     -0.221053
    133 C43         9.0550    2.1140    1.0480 c3        1 MOL      0.174535
    134 C44         9.1160    0.5750    0.9100 c         1 MOL      0.554496
    135 O18        10.1600   -0.0030    0.9220 o         1 MOL     -0.512678
    136 C45        10.0920    2.7460    2.0300 c3        1 MOL     -0.457895
    137 H62         7.3590    3.3860    0.9260 hn        1 MOL      0.233828
    138 H63         9.2720    2.3950    0.0210 h1        1 MOL      0.046329
    139 H64        11.0620    2.3810    1.6990 hc        1 MOL      0.136227
    140 H65         9.9850    3.8180    1.8940 hc        1 MOL      0.136227
    141 H66        10.0090    2.4030    3.0630 hc        1 MOL      0.136227
    142 N13         7.9390   -0.1340    0.6200 n         1 MOL     -0.510501
    143 C46         7.7600   -1.5630    0.5140 c3        1 MOL      0.540546
    144 C47         7.1370   -2.0720   -0.8210 c         1 MOL      0.223133
    145 O19         6.3630   -1.3480   -1.4870 o         1 MOL     -0.445238
    146 C48         7.0790   -2.1730    1.7500 c3        1 MOL     -0.437219
    147 H67         7.0850    0.3980    0.5950 hn        1 MOL      0.110181
    148 H68         8.7750   -1.9610    0.4550 h1        1 MOL     -0.046653
    149 H69         7.7490   -1.8490    2.5470 hc        1 MOL      0.125550
    150 H70         6.0760   -1.7520    1.8530 hc        1 MOL      0.125550
    151 H71         7.0350   -3.2520    1.6010 hc        1 MOL      0.125550
    152 N14         7.3440   -3.3210   -1.2310 n         1 MOL     -0.308145
    153 C49         6.7840   -3.9300   -2.4360 c3        1 MOL     -0.197669
    154 C50         7.2790   -3.3230   -3.7430 c         1 MOL      0.515233
    155 O20         6.7310   -3.5920   -4.8260 o         1 MOL     -0.510966
    156 C51         5.3000   -4.0030   -2.3360 c3        1 MOL      0.298265
    157 C52         4.7800   -4.7450   -1.1110 c3        1 MOL     -0.172172
    158 C53         3.2640   -4.8160   -0.9860 c         1 MOL      0.611119
    159 O21         2.5370   -3.7920   -1.2140 o         1 MOL     -0.665173
    160 O22         2.7340   -5.8340   -0.4960 o         1 MOL     -0.665173
    161 H72         8.0940   -3.7640   -0.7310 hn        1 MOL      0.256188
    162 H73         7.0940   -4.9770   -2.4460 h1        1 MOL      0.112891
    163 H74         4.8860   -4.3660   -3.2700 hc        1 MOL     -0.063138
    164 H75         4.8830   -3.0220   -2.1360 hc        1 MOL     -0.063138
    165 H76         5.0790   -4.2880   -0.1630 hc        1 MOL      0.021659
    166 H77         5.2200   -5.7360   -1.0090 hc        1 MOL      0.021659
    167 N15         8.3470   -2.5550   -3.6510 n         1 MOL     -0.313939
    168 C54         8.8100   -1.6740   -4.7330 c3        1 MOL     -0.168820
    169 H78         9.5400   -0.9660   -4.3380 h1        1 MOL      0.098977
    170 H79         9.2740   -2.2730   -5.5170 h1        1 MOL      0.098977
    171 H80         7.9630   -1.1280   -5.1460 h1        1 MOL      0.098977
    172 H81         8.7460   -2.3790   -2.7400 hn        1 MOL      0.250737
    173 Ca1         1.0920   -1.6730   -1.2320 Ca        1 MOL      1.795947
    174 O23         0.7610   -3.5530   -3.1840 oh        1 MOL     -0.922588
    175 H82         1.5700   -3.9960   -3.4550 ho        1 MOL      0.441852
    176 H83         0.1060   -3.8460   -3.8130 ho        1 MOL      0.441852
    177 O24         3.6180   -1.0750   -0.9510 oh        1 MOL     -0.922588
    178 H84         4.4700   -1.3730   -1.2820 ho        1 MOL      0.441852
    179 H85         3.8080   -0.3230   -0.3970 ho        1 MOL      0.441852
    180 O25         0.5900   -0.4220   -3.5320 oh        1 MOL     -0.922588
    181 H86         0.5080   -0.8450   -4.3880 ho        1 MOL      0.441852
    182 H87         0.5330    0.5160   -3.7230 ho        1 MOL      0.441852
    183 O26        -0.1190   -3.6640   -0.0790 oh        1 MOL     -0.922588
    184 H88         0.3160   -4.2750    0.5150 ho        1 MOL      0.441852
    185 H89        -0.5440   -4.2280   -0.7250 ho        1 MOL      0.441852
@<TRIPOS>BOND
     1    1    2 1   
     2    1    4 1   
     3    1    5 1   
     4    1    6 1   
     5    2    3 2   
     6    2    7 1   
     7    7    8 1   
     8    7   15 1   
     9    8    9 1   
    10    8   11 1   
    11    8   16 1   
    12    9   10 2   
    13    9   19 1   
    14   11   12 1   
    15   11   17 1   
    16   11   18 1   
    17   12   13 1   
    18   12   14 1   
    19   19   20 1   
    20   19   28 1   
    21   20   21 1   
    22   20   23 1   
    23   20   29 1   
    24   21   22 2   
    25   21   41 1   
    26   23   24 1   
    27   23   30 1   
    28   23   31 1   
    29   24   25 1   
    30   24   32 1   
    31   24   33 1   
    32   25   26 1   
    33   25   34 1   
    34   25   35 1   
    35   26   27 1   
    36   26   36 1   
    37   26   37 1   
    38   27   38 1   
    39   27   39 1   
    40   27   40 1   
    41   41   42 1   
    42   41   49 1   
    43   42   43 1   
    44   42   45 1   
    45   42   50 1   
    46   43   44 2   
    47   43   53 1   
    48   45   46 1   
    49   45   51 1   
    50   45   52 1   
    51   46   47 1   
    52   46   48 1   
    53   53   54 1   
    54   53   57 1   
    55   54   55 1   
    56   54   58 1   
    57   54   59 1   
    58   55   56 2   
    59   55   60 1   
    60   60   61 1   
    61   60   68 1   
    62   61   62 1   
    63   61   64 1   
    64   61   69 1   
    65   62   63 2   
    66   62   74 1   
    67   64   65 1   
    68   64   70 1   
    69   64   71 1   
    70   65   66 1   
    71   65   67 2   
    72   66   72 1   
    73   66   73 1   
    74   74   75 1   
    75   74   78 1   
    76   75   76 1   
    77   75   79 1   
    78   75   80 1   
    79   76   77 2   
    80   76   81 1   
    81   81   82 1   
    82   81   93 1   
    83   82   83 1   
    84   82   85 1   
    85   82   94 1   
    86   83   84 2   
    87   83  102 1   
    88   85   86 1   
    89   85   95 1   
    90   85   96 1   
    91   86   87 ar  
    92   86   88 ar  
    93   87   89 ar  
    94   87   97 1   
    95   88   90 ar  
    96   88   98 1   
    97   89   91 ar  
    98   89   99 1   
    99   90   91 ar  
   100   90  100 1   
   101   91   92 1   
   102   92  101 1   
   103  102  103 1   
   104  102  110 1   
   105  103  104 1   
   106  103  106 1   
   107  103  111 1   
   108  104  105 2   
   109  104  121 1   
   110  106  107 1   
   111  106  108 1   
   112  106  112 1   
   113  107  109 1   
   114  107  113 1   
   115  107  114 1   
   116  108  115 1   
   117  108  116 1   
   118  108  117 1   
   119  109  118 1   
   120  109  119 1   
   121  109  120 1   
   122  121  122 1   
   123  121  127 1   
   124  122  123 1   
   125  122  125 1   
   126  122  128 1   
   127  123  124 2   
   128  123  132 1   
   129  125  126 1   
   130  125  129 1   
   131  125  130 1   
   132  126  131 1   
   133  132  133 1   
   134  132  137 1   
   135  133  134 1   
   136  133  136 1   
   137  133  138 1   
   138  134  135 2   
   139  134  142 1   
   140  136  139 1   
   141  136  140 1   
   142  136  141 1   
   143  142  143 1   
   144  142  147 1   
   145  143  144 1   
   146  143  146 1   
   147  143  148 1   
   148  144  145 2   
   149  144  152 1   
   150  146  149 1   
   151  146  150 1   
   152  146  151 1   
   153  152  153 1   
   154  152  161 1   
   155  153  154 1   
   156  153  156 1   
   157  153  162 1   
   158  154  155 2   
   159  154  167 1   
   160  156  157 1   
   161  156  163 1   
   162  156  164 1   
   163  157  158 1   
   164  157  165 1   
   165  157  166 1   
   166  158  159 1   
   167  158  160 1   
   168  167  168 1   
   169  167  172 1   
   170  168  169 1   
   171  168  170 1   
   172  168  171 1   
   173  174  175 1   
   174  174  176 1   
   175  177  178 1   
   176  177  179 1   
   177  180  181 1   
   178  180  182 1   
   179  183  184 1   
   180  183  185 1   
@<TRIPOS>SUBSTRUCTURE
     1 MOL         1 TEMP              0 ****  ****    0 ROOT
