@<TRIPOS>MOLECULE
MOL
  181   177     1     0     0
SMALL
resp


@<TRIPOS>ATOM
      1 C1          6.4620    7.9000   -1.0900 c3        1 MOL     -0.476802
      2 C2          5.7350    6.8390   -0.2700 c         1 MOL      0.718099
      3 O1          5.2260    7.1160    0.8130 o         1 MOL     -0.586895
      4 H1          6.0400    7.9330   -2.0950 hc        1 MOL      0.136282
      5 H2          6.3430    8.8740   -0.6140 hc        1 MOL      0.136282
      6 H3          7.5210    7.6510   -1.1490 hc        1 MOL      0.136282
      7 N1          5.7410    5.4930   -0.5590 n         1 MOL     -0.620412
      8 C3          6.4440    4.8890   -1.6500 c3        1 MOL      0.256370
      9 C4          7.8710    4.4360   -1.2400 c         1 MOL      0.320006
     10 O2          8.7430    4.3970   -2.0880 o         1 MOL     -0.525080
     11 C5          5.6080    3.6310   -2.1350 c3        1 MOL     -0.281224
     12 C6          5.2160    2.6850   -1.0050 c         1 MOL      0.635508
     13 O3          4.1300    2.8370   -0.3510 o         1 MOL     -0.658353
     14 O4          6.0650    1.8850   -0.5390 o         1 MOL     -0.658353
     15 H4          5.2150    4.9000    0.0650 hn        1 MOL      0.327668
     16 H5          6.5480    5.6050   -2.4680 h1        1 MOL      0.055641
     17 H6          6.1310    3.0760   -2.9080 hc        1 MOL      0.083505
     18 H7          4.7330    4.0290   -2.6510 hc        1 MOL      0.083505
     19 N2          8.1640    4.1130    0.0390 n         1 MOL     -0.251929
     20 C7          9.5200    3.7840    0.5470 c3        1 MOL      0.130912
     21 C8          9.8290    2.2490    0.5770 c         1 MOL      0.388718
     22 O5         10.9440    1.8870    0.9730 o         1 MOL     -0.541304
     23 C9          9.7420    4.5700    1.9070 c3        1 MOL     -0.257381
     24 H8          7.4250    4.1790    0.7170 hn        1 MOL      0.200616
     25 H9         10.2430    4.2580   -0.1090 h1        1 MOL      0.089755
     26 H10         9.0840    4.1510    2.6640 hc        1 MOL      0.074892
     27 H11        10.7260    4.4490    2.3550 hc        1 MOL      0.074892
     28 H12         9.6640    5.6480    1.7590 hc        1 MOL      0.074892
     29 N3          8.8280    1.3820    0.2990 n         1 MOL     -0.157706
     30 C10         8.9820   -0.0290    0.0170 c3        1 MOL      0.102257
     31 C11         8.6690   -0.4310   -1.4440 c         1 MOL      0.298583
     32 O6          9.3500   -1.2170   -2.0800 o         1 MOL     -0.525103
     33 C12         8.2640   -0.9160    0.9970 c3        1 MOL     -0.331874
     34 C13         6.8400   -0.6250    1.2100 c         1 MOL      0.766306
     35 O7          6.4930   -0.0090    2.2820 o         1 MOL     -0.744744
     36 O8          6.0010   -0.9930    0.3420 o         1 MOL     -0.744744
     37 H13         7.9160    1.7580    0.0640 hn        1 MOL      0.093385
     38 H14        10.0580   -0.2190    0.0770 h1        1 MOL      0.080784
     39 H15         8.8160   -0.9120    1.9430 hc        1 MOL      0.090769
     40 H16         8.2930   -1.9030    0.5290 hc        1 MOL      0.090769
     41 N4          7.5290    0.0050   -1.9380 n         1 MOL     -0.046743
     42 C14         6.9380   -0.3820   -3.2480 c3        1 MOL     -0.437790
     43 C15         6.4120   -1.8270   -3.2020 c         1 MOL      0.686035
     44 O9          6.0440   -2.2640   -4.3160 o         1 MOL     -0.597091
     45 H17         6.9940    0.6150   -1.3370 hn        1 MOL      0.196421
     46 H18         7.6160   -0.4730   -4.0940 h1        1 MOL      0.174733
     47 H19         6.0540    0.2330   -3.3790 h1        1 MOL      0.174733
     48 N5          6.2380   -2.5510   -2.0680 n         1 MOL     -0.579288
     49 C16         5.8810   -4.0180   -2.1500 c3        1 MOL      0.288403
     50 C17         4.5460   -4.3610   -1.4840 c         1 MOL      0.413148
     51 O10         4.0550   -5.4670   -1.6080 o         1 MOL     -0.513789
     52 C18         7.0640   -4.8510   -1.6330 c3        1 MOL     -0.371280
     53 C19         6.8570   -6.3730   -1.6320 c         1 MOL      0.721501
     54 N6          6.8830   -7.0600   -2.7290 n         1 MOL     -0.855679
     55 O11         6.6000   -7.0350   -0.6250 o         1 MOL     -0.575507
     56 H20         6.4530   -2.1180   -1.1750 hn        1 MOL      0.443544
     57 H21         5.7150   -4.2820   -3.1880 h1        1 MOL      0.032126
     58 H22         7.4320   -4.5170   -0.6650 hc        1 MOL      0.093844
     59 H23         7.8530   -4.6130   -2.3470 hc        1 MOL      0.093844
     60 H24         7.0020   -6.5990   -3.6220 hn        1 MOL      0.381230
     61 H25         6.5800   -8.0200   -2.7030 hn        1 MOL      0.381230
     62 N7          3.9820   -3.4420   -0.7080 n         1 MOL     -0.316586
     63 C20         2.7080   -3.6800    0.0880 c3        1 MOL      0.056969
     64 C21         2.5150   -2.6910    1.1650 c         1 MOL      0.647305
     65 O12         3.3110   -1.8080    1.3810 o         1 MOL     -0.594045
     66 H26         4.4610   -2.5600   -0.6070 hn        1 MOL      0.138762
     67 H27         2.8290   -4.6990    0.4680 h1        1 MOL      0.078747
     68 H28         1.8070   -3.6580   -0.5250 h1        1 MOL      0.078747
     69 N8          1.5480   -2.8900    2.0390 n         1 MOL     -0.506242
     70 C22         0.4550   -3.9560    2.0670 c3        1 MOL      0.064011
     71 C23        -1.0370   -3.5740    1.9530 c         1 MOL      0.581452
     72 O13        -1.8390   -4.3640    1.3950 o         1 MOL     -0.537684
     73 C24         0.7460   -5.0300    3.1130 c3        1 MOL      0.408233
     74 C25         2.1380   -5.5760    3.1600 c3        1 MOL     -0.371116
     75 O14         0.5640   -4.4320    4.3520 oh        1 MOL     -0.640629
     76 H29         1.3680   -2.2030    2.7480 hn        1 MOL      0.282145
     77 H30         0.6560   -4.5680    1.1880 h1        1 MOL     -0.003587
     78 H31         0.0300   -5.8390    3.0260 h1        1 MOL     -0.020716
     79 H32         0.2900   -5.1490    4.9240 ho        1 MOL      0.391689
     80 H33         2.3730   -6.1050    4.0810 hc        1 MOL      0.096045
     81 H34         2.2950   -6.3190    2.3710 hc        1 MOL      0.096045
     82 H35         2.9140   -4.8240    3.0100 hc        1 MOL      0.096045
     83 N9         -1.4850   -2.3630    2.4150 n         1 MOL     -0.670424
     84 C26        -2.8200   -1.7800    2.2740 c3        1 MOL      0.509500
     85 C27        -2.8190   -0.6960    1.1190 c         1 MOL      0.348305
     86 O15        -1.9000    0.1370    0.9480 o         1 MOL     -0.551289
     87 C28        -3.2750   -1.1900    3.7020 c3        1 MOL     -0.128367
     88 C29        -3.3920   -2.3190    4.7550 c3        1 MOL      0.069993
     89 C30        -4.6300   -0.3570    3.5810 c3        1 MOL      0.029148
     90 C31        -4.6770   -3.1720    4.5310 c3        1 MOL     -0.087938
     91 H36        -0.7740   -1.8060    2.8640 hn        1 MOL      0.263150
     92 H37        -3.5620   -2.5400    2.0210 h1        1 MOL      0.071566
     93 H38        -2.4400   -0.5220    3.9410 hc        1 MOL      0.012367
     94 H39        -3.4900   -1.9120    5.7610 hc        1 MOL     -0.018820
     95 H40        -2.5330   -2.9840    4.8280 hc        1 MOL     -0.018820
     96 H41        -5.3560   -0.8670    2.9580 hc        1 MOL      0.013636
     97 H42        -5.1020   -0.2550    4.5570 hc        1 MOL      0.013636
     98 H43        -4.3610    0.6390    3.2160 hc        1 MOL      0.013636
     99 H44        -5.6110   -2.6400    4.3290 hc        1 MOL      0.004249
    100 H45        -4.4280   -3.9040    3.7580 hc        1 MOL      0.004249
    101 H46        -4.8250   -3.6730    5.4810 hc        1 MOL      0.004249
    102 N10        -3.8120   -0.6300    0.2590 n         1 MOL     -0.295716
    103 C32        -4.9560   -1.4990    0.1530 c3        1 MOL      0.023664
    104 C33        -6.2420   -0.7560   -0.2190 c         1 MOL      0.481946
    105 O16        -6.0700    0.3800   -0.8050 o         1 MOL     -0.520125
    106 C34        -4.6070   -2.5520   -0.9690 c3        1 MOL     -0.086102
    107 C35        -3.9200   -2.0540   -2.1870 c         1 MOL      0.622200
    108 O17        -4.5180   -1.1960   -2.9010 o         1 MOL     -0.693014
    109 O18        -2.7180   -2.3430   -2.4680 o         1 MOL     -0.693014
    110 H47        -3.7080    0.1620   -0.3560 hn        1 MOL      0.339056
    111 H48        -5.1460   -2.0800    1.0560 h1        1 MOL     -0.015494
    112 H49        -5.5990   -2.8710   -1.2900 hc        1 MOL     -0.013078
    113 H50        -4.1560   -3.4710   -0.5980 hc        1 MOL     -0.013078
    114 N11        -7.3950   -1.2900    0.1130 n         1 MOL     -0.403398
    115 C36        -8.6730   -0.6910   -0.2410 c3        1 MOL      0.407087
    116 C37        -9.3520    0.0390    0.9220 c         1 MOL      0.149638
    117 O19        -9.3420   -0.4900    2.0460 o         1 MOL     -0.496478
    118 C38        -9.6710   -1.7570   -0.8810 c3        1 MOL      0.027071
    119 C39        -9.2060   -2.4590   -2.0960 ca        1 MOL      0.023819
    120 C40        -8.6080   -3.7270   -1.9720 ca        1 MOL     -0.211204
    121 C41        -9.3170   -1.8160   -3.3510 ca        1 MOL     -0.211204
    122 C42        -8.1530   -4.3970   -3.1720 ca        1 MOL     -0.034842
    123 C43        -8.9310   -2.5390   -4.4960 ca        1 MOL     -0.034842
    124 C44        -8.3980   -3.8210   -4.4240 ca        1 MOL     -0.156781
    125 H51        -7.4370   -2.1680    0.5910 hn        1 MOL      0.246164
    126 H52        -8.4830   -0.0440   -1.1010 h1        1 MOL      0.076878
    127 H53       -10.6410   -1.3060   -1.0970 hc        1 MOL     -0.007547
    128 H54        -9.9360   -2.5080   -0.1330 hc        1 MOL     -0.007547
    129 H55        -8.4670   -4.2060   -1.0140 ha        1 MOL      0.121419
    130 H56        -9.7290   -0.8170   -3.4760 ha        1 MOL      0.121419
    131 H57        -7.7080   -5.3760   -3.1200 ha        1 MOL      0.092938
    132 H58        -9.1280   -2.0830   -5.4520 ha        1 MOL      0.092938
    133 H59        -8.2220   -4.3800   -5.3310 ha        1 MOL      0.104184
    134 N12       -10.1570    1.1160    0.6340 n         1 MOL      0.061463
    135 C45       -10.2980    1.7220   -0.6780 c3        1 MOL     -0.096581
    136 C46        -9.1080    2.4370   -1.1770 c         1 MOL      0.433347
    137 O20        -8.8820    2.4000   -2.3640 o         1 MOL     -0.545884
    138 C47       -11.4450    2.7240   -0.5660 c3        1 MOL      0.078206
    139 C48       -12.1490    2.3490    0.7540 c3        1 MOL     -0.044249
    140 C49       -11.2280    1.4570    1.5800 c3        1 MOL     -0.151107
    141 H60       -10.6360    0.8760   -1.2920 h1        1 MOL      0.037096
    142 H61       -11.0970    3.7580   -0.5250 hc        1 MOL      0.003688
    143 H62       -12.1780    2.7450   -1.3760 hc        1 MOL      0.003688
    144 H63       -12.4800    3.2270    1.3020 hc        1 MOL      0.020244
    145 H64       -13.0390    1.7740    0.5070 hc        1 MOL      0.020244
    146 H65       -10.8110    1.9310    2.4610 h1        1 MOL      0.080159
    147 H66       -11.8310    0.6010    1.8720 h1        1 MOL      0.080159
    148 N13        -8.2480    2.9660   -0.3160 n         1 MOL     -0.212104
    149 C50        -6.9100    3.5660   -0.7540 c3        1 MOL     -0.052919
    150 C51        -7.2000    4.8420   -1.6470 c         1 MOL      0.387545
    151 O21        -7.5990    5.9160   -1.1340 o         1 MOL     -0.565339
    152 C52        -6.2630    4.0610    0.5270 c3        1 MOL      0.323005
    153 C53        -5.8090    2.9120    1.4030 c3        1 MOL     -0.262473
    154 C54        -4.9540    3.4190    2.6150 c         1 MOL      0.720285
    155 O22        -3.7670    3.6730    2.4200 o         1 MOL     -0.737058
    156 O23        -5.5170    3.6760    3.7640 o         1 MOL     -0.737058
    157 H67        -8.5790    3.2030    0.6070 hn        1 MOL      0.237113
    158 H68        -6.2600    2.8400   -1.2420 h1        1 MOL      0.173854
    159 H69        -6.9440    4.7170    1.0670 hc        1 MOL     -0.056487
    160 H70        -5.3600    4.6190    0.2810 hc        1 MOL     -0.056487
    161 H71        -5.2470    2.2810    0.7200 hc        1 MOL     -0.028758
    162 H72        -6.6550    2.3100    1.7190 hc        1 MOL     -0.028758
    163 N14        -6.9850    4.8200   -2.9810 n         1 MOL     -0.337061
    164 C55        -6.6130    3.6720   -3.8510 c3        1 MOL     -0.150125
    165 H73        -5.8540    3.9890   -4.5650 h1        1 MOL      0.090513
    166 H74        -6.2180    2.8630   -3.2370 h1        1 MOL      0.090513
    167 H75        -7.4950    3.3240   -4.3890 h1        1 MOL      0.090513
    168 H76        -7.2870    5.6610   -3.4520 hn        1 MOL      0.264919
    169 Ca1         4.2600    0.7370    1.1980 Ca        1 MOL      1.786404
    170 O24         3.5690   -0.0250    3.6910 oh        1 MOL     -0.870675
    171 H77         3.0730    0.4910    4.3270 ho        1 MOL      0.428652
    172 H78         3.5030   -0.9210    4.0020 ho        1 MOL      0.428652
    173 O25         1.9860    1.9200    1.6970 oh        1 MOL     -0.870675
    174 H79         1.8490    2.8510    1.8640 ho        1 MOL      0.428652
    175 H80         1.2530    1.4880    2.1480 ho        1 MOL      0.428652
    176 O26         3.1610    0.0820   -1.0630 oh        1 MOL     -0.870675
    177 H81         2.2040    0.0660   -1.0150 ho        1 MOL      0.428652
    178 H82         3.3590    0.5230   -1.8850 ho        1 MOL      0.428652
    179 O27         4.9590    2.8280    2.5990 oh        1 MOL     -0.870675
    180 H83         5.4880    3.6180    2.4860 ho        1 MOL      0.428652
    181 H84         4.5130    2.9590    3.4400 ho        1 MOL      0.428652
@<TRIPOS>BOND
     1    1    2 1   
     2    1    4 1   
     3    1    5 1   
     4    1    6 1   
     5    2    3 2   
     6    2    7 1   
     7    7    8 1   
     8    7   15 1   
     9    8    9 1   
    10    8   11 1   
    11    8   16 1   
    12    9   10 2   
    13    9   19 1   
    14   11   12 1   
    15   11   17 1   
    16   11   18 1   
    17   12   13 1   
    18   12   14 1   
    19   19   20 1   
    20   19   24 1   
    21   20   21 1   
    22   20   23 1   
    23   20   25 1   
    24   21   22 2   
    25   21   29 1   
    26   23   26 1   
    27   23   27 1   
    28   23   28 1   
    29   29   30 1   
    30   29   37 1   
    31   30   31 1   
    32   30   33 1   
    33   30   38 1   
    34   31   32 2   
    35   31   41 1   
    36   33   34 1   
    37   33   39 1   
    38   33   40 1   
    39   34   35 1   
    40   34   36 1   
    41   41   42 1   
    42   41   45 1   
    43   42   43 1   
    44   42   46 1   
    45   42   47 1   
    46   43   44 2   
    47   43   48 1   
    48   48   49 1   
    49   48   56 1   
    50   49   50 1   
    51   49   52 1   
    52   49   57 1   
    53   50   51 2   
    54   50   62 1   
    55   52   53 1   
    56   52   58 1   
    57   52   59 1   
    58   53   54 1   
    59   53   55 2   
    60   54   60 1   
    61   54   61 1   
    62   62   63 1   
    63   62   66 1   
    64   63   64 1   
    65   63   67 1   
    66   63   68 1   
    67   64   65 2   
    68   64   69 1   
    69   69   70 1   
    70   69   76 1   
    71   70   71 1   
    72   70   73 1   
    73   70   77 1   
    74   71   72 2   
    75   71   83 1   
    76   73   74 1   
    77   73   75 1   
    78   73   78 1   
    79   74   80 1   
    80   74   81 1   
    81   74   82 1   
    82   75   79 1   
    83   83   84 1   
    84   83   91 1   
    85   84   85 1   
    86   84   87 1   
    87   84   92 1   
    88   85   86 2   
    89   85  102 1   
    90   87   88 1   
    91   87   89 1   
    92   87   93 1   
    93   88   90 1   
    94   88   94 1   
    95   88   95 1   
    96   89   96 1   
    97   89   97 1   
    98   89   98 1   
    99   90   99 1   
   100   90  100 1   
   101   90  101 1   
   102  102  103 1   
   103  102  110 1   
   104  103  104 1   
   105  103  106 1   
   106  103  111 1   
   107  104  105 2   
   108  104  114 1   
   109  106  107 1   
   110  106  112 1   
   111  106  113 1   
   112  107  108 1   
   113  107  109 1   
   114  114  115 1   
   115  114  125 1   
   116  115  116 1   
   117  115  118 1   
   118  115  126 1   
   119  116  117 2   
   120  116  134 1   
   121  118  119 1   
   122  118  127 1   
   123  118  128 1   
   124  119  120 ar  
   125  119  121 ar  
   126  120  122 ar  
   127  120  129 1   
   128  121  123 ar  
   129  121  130 1   
   130  122  124 ar  
   131  122  131 1   
   132  123  124 ar  
   133  123  132 1   
   134  124  133 1   
   135  134  135 1   
   136  134  140 1   
   137  135  136 1   
   138  135  138 1   
   139  135  141 1   
   140  136  137 2   
   141  136  148 1   
   142  138  139 1   
   143  138  142 1   
   144  138  143 1   
   145  139  140 1   
   146  139  144 1   
   147  139  145 1   
   148  140  146 1   
   149  140  147 1   
   150  148  149 1   
   151  148  157 1   
   152  149  150 1   
   153  149  152 1   
   154  149  158 1   
   155  150  151 2   
   156  150  163 1   
   157  152  153 1   
   158  152  159 1   
   159  152  160 1   
   160  153  154 1   
   161  153  161 1   
   162  153  162 1   
   163  154  155 1   
   164  154  156 1   
   165  163  164 1   
   166  163  168 1   
   167  164  165 1   
   168  164  166 1   
   169  164  167 1   
   170  170  171 1   
   171  170  172 1   
   172  173  174 1   
   173  173  175 1   
   174  176  177 1   
   175  176  178 1   
   176  179  180 1   
   177  179  181 1   
@<TRIPOS>SUBSTRUCTURE
     1 MOL         1 TEMP              0 ****  ****    0 ROOT
