@<TRIPOS>MOLECULE
MOL
  176   174     1     0     0
SMALL
resp


@<TRIPOS>ATOM
      1 C1          3.2560    2.0250    6.4010 c3        1 MOL     -0.229554
      2 C2          2.9690    1.9090    4.9080 c         1 MOL      0.683315
      3 O1          3.8180    1.4500    4.1250 o         1 MOL     -0.583685
      4 H1          2.4820    1.5010    6.9610 hc        1 MOL      0.062491
      5 H2          4.2260    1.5800    6.6210 hc        1 MOL      0.062491
      6 H3          3.2640    3.0770    6.6890 hc        1 MOL      0.062491
      7 N1          1.7260    2.2550    4.4790 n         1 MOL     -0.559034
      8 C3          1.2170    2.2240    3.1600 c3        1 MOL      0.163357
      9 C4          1.5810    3.4640    2.3190 c         1 MOL      0.514688
     10 O2          1.0230    4.4920    2.4470 o         1 MOL     -0.472807
     11 C5         -0.2580    1.7610    3.1290 c3        1 MOL     -0.109458
     12 C6         -0.8740    1.7520    1.7530 c         1 MOL      0.716740
     13 O3         -2.0760    1.5430    1.5530 o         1 MOL     -0.743659
     14 O4         -0.1200    1.9200    0.7700 o         1 MOL     -0.743659
     15 H4          1.0530    2.5450    5.1700 hn        1 MOL      0.294377
     16 H5          1.7390    1.3970    2.6920 h1        1 MOL      0.015675
     17 H6         -0.8960    2.4360    3.7080 hc        1 MOL      0.014828
     18 H7         -0.3590    0.7780    3.5900 hc        1 MOL      0.014828
     19 N2          2.6790    3.3140    1.5050 n         1 MOL     -0.449626
     20 C7          3.2960    4.3540    0.6710 c3        1 MOL      0.102597
     21 C8          2.2890    5.0530   -0.3490 c         1 MOL      0.435585
     22 O5          2.4820    6.3090   -0.6000 o         1 MOL     -0.566186
     23 C9          4.4600    3.7640   -0.0710 c3        1 MOL     -0.241405
     24 C10         5.3000    4.8190   -0.7900 c3        1 MOL      0.077486
     25 C11         6.4740    4.3060   -1.5760 c3        1 MOL     -0.017398
     26 C12         7.3440    5.3850   -2.1320 c3        1 MOL      0.128903
     27 N3          8.5700    4.8420   -2.8620 n4        1 MOL     -0.303640
     28 H8          3.0530    2.4020    1.3050 hn        1 MOL      0.298727
     29 H9          3.6760    5.1700    1.2900 h1        1 MOL      0.091265
     30 H10         4.0740    3.0060   -0.7490 hc        1 MOL      0.071518
     31 H11         5.1230    3.3200    0.6730 hc        1 MOL      0.071518
     32 H12         5.5430    5.5640   -0.0300 hc        1 MOL      0.014676
     33 H13         4.6760    5.3720   -1.4910 hc        1 MOL      0.014676
     34 H14         6.0980    3.6650   -2.3750 hc        1 MOL      0.024400
     35 H15         7.1050    3.7420   -0.8930 hc        1 MOL      0.024400
     36 H16         7.6960    6.1150   -1.4010 hx        1 MOL      0.047665
     37 H17         6.7680    5.9550   -2.8680 hx        1 MOL      0.047665
     38 H18         9.3250    4.4590   -2.3100 hn        1 MOL      0.282466
     39 H19         8.2760    4.1610   -3.5490 hn        1 MOL      0.282466
     40 H20         9.0530    5.5790   -3.3470 hn        1 MOL      0.282466
     41 N4          1.2290    4.3420   -0.7370 n         1 MOL     -0.236052
     42 C13         0.1600    4.9370   -1.6150 c3        1 MOL     -0.035076
     43 C14        -1.1210    5.4130   -0.8620 c         1 MOL      0.419863
     44 O6         -1.9430    6.2360   -1.2030 o         1 MOL     -0.579610
     45 C15        -0.0360    4.0340   -2.8580 c3        1 MOL     -0.334996
     46 C16        -0.5630    2.7620   -2.2790 c         1 MOL      0.850189
     47 O7         -1.7280    2.7330   -1.8320 o         1 MOL     -0.799444
     48 O8          0.0350    1.6420   -2.4300 o         1 MOL     -0.799444
     49 H21         1.1500    3.3830   -0.4300 hn        1 MOL      0.244129
     50 H22         0.5870    5.8700   -1.9800 h1        1 MOL      0.115193
     51 H23         0.9080    3.8200   -3.3640 hc        1 MOL      0.112476
     52 H24        -0.7300    4.3980   -3.6110 hc        1 MOL      0.112476
     53 N5         -1.2150    4.9340    0.3380 n         1 MOL      0.300944
     54 C17        -2.1420    5.2840    1.3540 c3        1 MOL     -0.263026
     55 C18        -3.5690    4.8520    1.0810 c         1 MOL      0.592603
     56 O9         -4.4680    5.4950    1.6070 o         1 MOL     -0.547487
     57 H25        -0.5750    4.2390    0.6830 hn        1 MOL     -0.225442
     58 H26        -2.0430    6.3480    1.5720 h1        1 MOL      0.112663
     59 H27        -1.8810    4.5980    2.1590 h1        1 MOL      0.112663
     60 N6         -3.7300    3.9630    0.0150 n         1 MOL     -0.279767
     61 C19        -5.0150    3.4980   -0.4680 c3        1 MOL      0.005630
     62 C20        -5.0620    2.0210   -0.9920 c         1 MOL      0.512807
     63 O10        -4.0600    1.3390   -0.7340 o         1 MOL     -0.474774
     64 C21        -5.6850    4.5360   -1.4180 c3        1 MOL     -0.407226
     65 C22        -5.1370    4.5190   -2.8260 c         1 MOL      0.662135
     66 N7         -3.9010    4.9160   -2.9790 n         1 MOL     -0.696005
     67 O11        -5.8290    4.2340   -3.8300 o         1 MOL     -0.613811
     68 H28        -2.9100    3.5560   -0.4140 hn        1 MOL      0.263551
     69 H29        -5.6340    3.4910    0.4340 h1        1 MOL      0.072968
     70 H30        -5.4760    5.5130   -0.9760 hc        1 MOL      0.130207
     71 H31        -6.7710    4.5050   -1.5460 hc        1 MOL      0.130207
     72 H32        -3.3940    5.2710   -2.1760 hn        1 MOL      0.337183
     73 H33        -3.4830    4.9800   -3.8920 hn        1 MOL      0.337183
     74 N8         -6.2590    1.6160   -1.3970 n         1 MOL     -0.379582
     75 C23        -6.5850    0.2370   -1.7160 c3        1 MOL     -0.034746
     76 C24        -6.1350   -0.7980   -0.6310 c         1 MOL      0.457089
     77 O12        -6.4780   -0.6080    0.5070 o         1 MOL     -0.446946
     78 H34        -6.9280    2.3370   -1.5930 hn        1 MOL      0.300994
     79 H35        -6.1570   -0.0020   -2.6980 h1        1 MOL      0.066596
     80 H36        -7.6330    0.0020   -1.8950 h1        1 MOL      0.066596
     81 N9         -5.3550   -1.8050   -1.0800 n         1 MOL     -0.407909
     82 C25        -4.9290   -2.8020   -0.1150 c3        1 MOL      0.220439
     83 C26        -3.8760   -2.2340    0.7980 c         1 MOL      0.139163
     84 O13        -3.3890   -1.1210    0.5350 o         1 MOL     -0.319162
     85 C27        -4.3400   -4.0960   -0.6950 c3        1 MOL     -0.073915
     86 C28        -5.3180   -4.9910   -1.4200 ca        1 MOL     -0.008596
     87 C29        -5.3260   -4.9860   -2.8450 ca        1 MOL     -0.131374
     88 C30        -6.3310   -5.5790   -0.6980 ca        1 MOL     -0.131374
     89 C31        -6.4240   -5.5150   -3.5190 ca        1 MOL     -0.254231
     90 C32        -7.4390   -6.0670   -1.3990 ca        1 MOL     -0.254231
     91 C33        -7.5150   -6.0500   -2.8420 ca        1 MOL      0.342568
     92 O14        -8.7620   -6.2980   -3.3750 oh        1 MOL     -0.497687
     93 H37        -5.0790   -1.9860   -2.0300 hn        1 MOL      0.242436
     94 H38        -5.7910   -2.9780    0.5310 h1        1 MOL      0.028042
     95 H39        -3.8500   -4.6710    0.0910 hc        1 MOL      0.027200
     96 H40        -3.6100   -3.7990   -1.4570 hc        1 MOL      0.027200
     97 H41        -4.6130   -4.4530   -3.4510 ha        1 MOL      0.126544
     98 H42        -6.3170   -5.6350    0.3740 ha        1 MOL      0.126544
     99 H43        -6.4050   -5.4900   -4.5970 ha        1 MOL      0.153812
    100 H44        -8.2880   -6.3760   -0.8170 ha        1 MOL      0.153812
    101 H45        -9.3970   -6.7150   -2.7960 ho        1 MOL      0.379690
    102 N10        -3.6260   -2.9010    1.8900 n         1 MOL     -0.247821
    103 C34        -2.6370   -2.6170    2.9090 c3        1 MOL      0.096874
    104 C35        -1.1590   -2.2710    2.4370 c         1 MOL      0.395908
    105 O15        -0.8220   -1.3790    1.6130 o         1 MOL     -0.547003
    106 C36        -3.2280   -1.5020    3.8450 c3        1 MOL      0.277943
    107 C37        -2.4280   -1.3510    5.2040 c3        1 MOL     -0.239834
    108 C38        -4.6480   -1.7650    4.1850 c3        1 MOL     -0.330720
    109 C39        -2.5240   -2.4460    6.2150 c3        1 MOL     -0.342181
    110 H46        -4.0410   -3.8230    1.9670 hn        1 MOL      0.250088
    111 H47        -2.4840   -3.5260    3.4950 h1        1 MOL      0.017026
    112 H48        -3.1850   -0.5710    3.2850 hc        1 MOL      0.008709
    113 H49        -2.7310   -0.4600    5.7490 hc        1 MOL      0.118109
    114 H50        -1.3750   -1.1060    5.0900 hc        1 MOL      0.118109
    115 H51        -4.9840   -0.9500    4.8300 hc        1 MOL      0.087996
    116 H52        -5.2820   -1.6180    3.3040 hc        1 MOL      0.087996
    117 H53        -4.7030   -2.8150    4.4840 hc        1 MOL      0.087996
    118 H54        -1.9300   -3.3110    5.9090 hc        1 MOL      0.089573
    119 H55        -2.0420   -2.1550    7.1520 hc        1 MOL      0.089573
    120 H56        -3.5850   -2.6170    6.4300 hc        1 MOL      0.089573
    121 N11        -0.1420   -3.0150    2.9640 n         1 MOL     -0.610490
    122 C40         1.2560   -2.4910    2.9500 c3        1 MOL      0.055283
    123 C41         1.9340   -2.4910    1.5950 c         1 MOL      0.357307
    124 O16         3.0370   -1.9370    1.5090 o         1 MOL     -0.517582
    125 C42         2.0980   -3.1900    4.0530 c3        1 MOL      0.039474
    126 O17         1.4210   -3.0050    5.2360 oh        1 MOL     -0.576471
    127 H57        -0.3530   -3.7470    3.6280 hn        1 MOL      0.348758
    128 H58         1.1680   -1.4110    3.0990 h1        1 MOL      0.247582
    129 H59         3.0860   -2.7390    4.0540 h1        1 MOL      0.094892
    130 H60         2.1470   -4.2600    3.8430 h1        1 MOL      0.094892
    131 H61         1.0970   -3.8530    5.5650 ho        1 MOL      0.405118
    132 N12         1.4000   -3.1430    0.5780 n         1 MOL     -0.277736
    133 C43         1.8820   -3.1150   -0.7730 c3        1 MOL     -0.019169
    134 C44         1.6660   -1.7270   -1.4630 c         1 MOL      0.800805
    135 O18         0.5700   -1.1490   -1.3750 o         1 MOL     -0.676933
    136 C45         1.2840   -4.2400   -1.6420 c3        1 MOL     -0.385208
    137 H62         0.5550   -3.6530    0.8020 hn        1 MOL      0.260604
    138 H63         2.9570   -3.2850   -0.6840 h1        1 MOL      0.133583
    139 H64         0.3430   -3.8760   -2.0650 hc        1 MOL      0.112815
    140 H65         2.0350   -4.5640   -2.3650 hc        1 MOL      0.112815
    141 H66         1.0970   -5.1350   -1.0470 hc        1 MOL      0.112815
    142 N13         2.6660   -1.0760   -2.0960 n         1 MOL     -0.757941
    143 C46         4.1340   -1.2210   -1.9840 c3        1 MOL      0.245814
    144 C47         4.6040   -2.6310   -2.5980 c         1 MOL      0.746042
    145 O19         4.2990   -2.9460   -3.7520 o         1 MOL     -0.593311
    146 C48         4.6620    0.0260   -2.7240 c3        1 MOL     -0.318881
    147 H67         2.3060   -0.2870   -2.6110 hn        1 MOL      0.391941
    148 H68         4.3100   -1.1730   -0.9030 h1        1 MOL      0.100678
    149 H69         4.5830   -0.0650   -3.8060 hc        1 MOL      0.093676
    150 H70         4.0250    0.8610   -2.4460 hc        1 MOL      0.093676
    151 H71         5.6950    0.1850   -2.4080 hc        1 MOL      0.093676
    152 N14         5.2990   -3.4860   -1.8530 n         1 MOL     -0.586366
    153 C49         5.8170   -3.4020   -0.4460 c3        1 MOL     -0.464818
    154 C50         6.1560   -4.8080    0.1550 c         1 MOL      0.760611
    155 O20         6.3260   -4.9570    1.3410 o         1 MOL     -0.564236
    156 C51         7.0690   -2.5580   -0.3530 c3        1 MOL      0.357811
    157 C52         8.3240   -3.1690   -1.0020 c3        1 MOL     -0.396316
    158 C53         8.3400   -3.0580   -2.5310 c         1 MOL      0.783396
    159 O21         7.9590   -2.0280   -3.0560 o         1 MOL     -0.703561
    160 O22         8.8060   -3.9710   -3.2570 o         1 MOL     -0.703561
    161 H72         5.5870   -4.2860   -2.4090 hn        1 MOL      0.311677
    162 H73         5.0370   -2.9700    0.1720 h1        1 MOL      0.161092
    163 H74         7.2800   -2.3920    0.7040 hc        1 MOL     -0.054398
    164 H75         6.8160   -1.6220   -0.8520 hc        1 MOL     -0.054398
    165 H76         8.5470   -4.2120   -0.7710 hc        1 MOL      0.076140
    166 H77         9.1860   -2.5830   -0.6910 hc        1 MOL      0.076140
    167 N15         6.2340   -5.8680   -0.6400 n         1 MOL     -0.441670
    168 C54         6.5680   -7.2230   -0.0210 c3        1 MOL     -0.181016
    169 H78         5.9170   -7.4010    0.8350 h1        1 MOL      0.101888
    170 H79         6.4170   -8.0080   -0.7620 h1        1 MOL      0.101888
    171 H80         7.6070   -7.2280    0.3060 h1        1 MOL      0.101888
    172 H81         6.4000   -5.7150   -1.6190 hn        1 MOL      0.315739
    173 Ca1        -1.5950    0.2470   -0.8090 Ca        1 MOL      1.776641
    174 O23        -2.5700   -1.1400   -2.8000 oh        1 MOL     -0.966376
    175 H82        -2.2780   -1.9930   -3.1350 ho        1 MOL      0.469916
    176 H83        -3.2590   -0.8720   -3.4160 ho        1 MOL      0.469916
@<TRIPOS>BOND
     1    1    2 1   
     2    1    4 1   
     3    1    5 1   
     4    1    6 1   
     5    2    3 2   
     6    2    7 1   
     7    7    8 1   
     8    7   15 1   
     9    8    9 1   
    10    8   11 1   
    11    8   16 1   
    12    9   10 2   
    13    9   19 1   
    14   11   12 1   
    15   11   17 1   
    16   11   18 1   
    17   12   13 1   
    18   12   14 1   
    19   19   20 1   
    20   19   28 1   
    21   20   21 1   
    22   20   23 1   
    23   20   29 1   
    24   21   22 2   
    25   21   41 1   
    26   23   24 1   
    27   23   30 1   
    28   23   31 1   
    29   24   25 1   
    30   24   32 1   
    31   24   33 1   
    32   25   26 1   
    33   25   34 1   
    34   25   35 1   
    35   26   27 1   
    36   26   36 1   
    37   26   37 1   
    38   27   38 1   
    39   27   39 1   
    40   27   40 1   
    41   41   42 1   
    42   41   49 1   
    43   42   43 1   
    44   42   45 1   
    45   42   50 1   
    46   43   44 2   
    47   43   53 1   
    48   45   46 1   
    49   45   51 1   
    50   45   52 1   
    51   46   47 1   
    52   46   48 1   
    53   53   54 1   
    54   53   57 1   
    55   54   55 1   
    56   54   58 1   
    57   54   59 1   
    58   55   56 2   
    59   55   60 1   
    60   60   61 1   
    61   60   68 1   
    62   61   62 1   
    63   61   64 1   
    64   61   69 1   
    65   62   63 2   
    66   62   74 1   
    67   64   65 1   
    68   64   70 1   
    69   64   71 1   
    70   65   66 1   
    71   65   67 2   
    72   66   72 1   
    73   66   73 1   
    74   74   75 1   
    75   74   78 1   
    76   75   76 1   
    77   75   79 1   
    78   75   80 1   
    79   76   77 2   
    80   76   81 1   
    81   81   82 1   
    82   81   93 1   
    83   82   83 1   
    84   82   85 1   
    85   82   94 1   
    86   83   84 2   
    87   83  102 1   
    88   85   86 1   
    89   85   95 1   
    90   85   96 1   
    91   86   87 ar  
    92   86   88 ar  
    93   87   89 ar  
    94   87   97 1   
    95   88   90 ar  
    96   88   98 1   
    97   89   91 ar  
    98   89   99 1   
    99   90   91 ar  
   100   90  100 1   
   101   91   92 1   
   102   92  101 1   
   103  102  103 1   
   104  102  110 1   
   105  103  104 1   
   106  103  106 1   
   107  103  111 1   
   108  104  105 2   
   109  104  121 1   
   110  106  107 1   
   111  106  108 1   
   112  106  112 1   
   113  107  109 1   
   114  107  113 1   
   115  107  114 1   
   116  108  115 1   
   117  108  116 1   
   118  108  117 1   
   119  109  118 1   
   120  109  119 1   
   121  109  120 1   
   122  121  122 1   
   123  121  127 1   
   124  122  123 1   
   125  122  125 1   
   126  122  128 1   
   127  123  124 2   
   128  123  132 1   
   129  125  126 1   
   130  125  129 1   
   131  125  130 1   
   132  126  131 1   
   133  132  133 1   
   134  132  137 1   
   135  133  134 1   
   136  133  136 1   
   137  133  138 1   
   138  134  135 2   
   139  134  142 1   
   140  136  139 1   
   141  136  140 1   
   142  136  141 1   
   143  142  143 1   
   144  142  147 1   
   145  143  144 1   
   146  143  146 1   
   147  143  148 1   
   148  144  145 2   
   149  144  152 1   
   150  146  149 1   
   151  146  150 1   
   152  146  151 1   
   153  152  153 1   
   154  152  161 1   
   155  153  154 1   
   156  153  156 1   
   157  153  162 1   
   158  154  155 2   
   159  154  167 1   
   160  156  157 1   
   161  156  163 1   
   162  156  164 1   
   163  157  158 1   
   164  157  165 1   
   165  157  166 1   
   166  158  159 1   
   167  158  160 1   
   168  167  168 1   
   169  167  172 1   
   170  168  169 1   
   171  168  170 1   
   172  168  171 1   
   173  174  175 1   
   174  174  176 1   
@<TRIPOS>SUBSTRUCTURE
     1 MOL         1 TEMP              0 ****  ****    0 ROOT
