@<TRIPOS>MOLECULE
MOL
  189   185     1     0     0
SMALL
resp


@<TRIPOS>ATOM
      1 C1          4.0180    4.4800   -3.4870 c3        1 MOL     -0.509608
      2 C2          4.8440    3.6990   -2.4580 c         1 MOL      0.818383
      3 O1          4.2650    3.1410   -1.5240 o         1 MOL     -0.566742
      4 H1          3.5800    3.7860   -4.2040 hc        1 MOL      0.134485
      5 H2          3.2240    5.0260   -2.9780 hc        1 MOL      0.134485
      6 H3          4.6630    5.1840   -4.0130 hc        1 MOL      0.134485
      7 N1          6.1750    3.4670   -2.5920 n         1 MOL     -0.832571
      8 C3          6.9580    2.4190   -1.8680 c3        1 MOL      0.434525
      9 C4          6.1910    1.1320   -1.5500 c         1 MOL      0.207916
     10 O2          5.8080    0.7840   -0.4210 o         1 MOL     -0.444253
     11 C5          7.7390    2.9910   -0.6420 c3        1 MOL     -0.368800
     12 C6          7.0040    4.0600    0.2010 c         1 MOL      0.899114
     13 O3          6.0950    3.7150    0.9750 o         1 MOL     -0.767642
     14 O4          7.3190    5.2490    0.2620 o         1 MOL     -0.767642
     15 H4          6.7330    3.8900   -3.3340 hn        1 MOL      0.358674
     16 H5          7.7410    2.1370   -2.5750 h1        1 MOL      0.005844
     17 H6          8.6860    3.4360   -0.9480 hc        1 MOL      0.069345
     18 H7          7.9780    2.1920    0.0640 hc        1 MOL      0.069345
     19 N2          5.9030    0.4540   -2.6370 n         1 MOL     -0.370477
     20 C7          5.3510   -0.9470   -2.7410 c3        1 MOL      0.206934
     21 C8          6.1850   -1.9640   -2.0650 c         1 MOL      0.297140
     22 O5          6.7710   -2.8270   -2.7070 o         1 MOL     -0.525783
     23 C9          3.7880   -0.9980   -2.3890 c3        1 MOL      0.268931
     24 C10         3.2890   -2.3810   -2.4150 c3        1 MOL     -0.243159
     25 C11         2.9980   -0.1400   -3.3420 c3        1 MOL     -0.156807
     26 C12         3.4800   -3.1310   -3.8030 c3        1 MOL     -0.110582
     27 H8          6.1120    0.9800   -3.4730 hn        1 MOL      0.238908
     28 H9          5.4420   -1.1870   -3.7940 h1        1 MOL     -0.000505
     29 H10         3.6830   -0.6130   -1.3770 hc        1 MOL     -0.128425
     30 H11         2.2320   -2.3900   -2.1560 hc        1 MOL      0.113383
     31 H12         3.6990   -3.0500   -1.6680 hc        1 MOL      0.113383
     32 H13         3.1710    0.9160   -3.1310 hc        1 MOL      0.026013
     33 H14         3.2800   -0.2910   -4.3850 hc        1 MOL      0.026013
     34 H15         1.9300   -0.3350   -3.2790 hc        1 MOL      0.026013
     35 H16         2.7960   -2.8730   -4.6100 hc        1 MOL      0.016839
     36 H17         4.5110   -3.0870   -4.1260 hc        1 MOL      0.016839
     37 H18         3.3470   -4.2060   -3.6050 hc        1 MOL      0.016839
     38 N3          6.4210   -1.8360   -0.7510 n         1 MOL     -0.095451
     39 C13         7.1490   -2.8610    0.0150 c3        1 MOL      0.035178
     40 C14         6.3470   -4.1870    0.0670 c         1 MOL      0.605933
     41 O6          6.9890   -5.1830   -0.1130 o         1 MOL     -0.592744
     42 C15         7.5740   -2.3100    1.4300 c3        1 MOL     -0.188954
     43 C16         8.2110   -0.9000    1.3860 c         1 MOL      0.761736
     44 O7          9.0280   -0.6320    0.4710 o         1 MOL     -0.716455
     45 O8          8.0540   -0.1210    2.3610 o         1 MOL     -0.716455
     46 H19         6.1840   -1.0180   -0.2040 hn        1 MOL      0.216298
     47 H20         8.0520   -3.1140   -0.5310 h1        1 MOL      0.047361
     48 H21         8.2720   -2.9590    1.9580 hc        1 MOL      0.040527
     49 H22         6.7320   -2.2570    2.1140 hc        1 MOL      0.040527
     50 N4          5.0400   -4.2880    0.3150 n         1 MOL     -0.538179
     51 C17         4.1030   -3.3250    0.9910 c3        1 MOL      0.058591
     52 C18         4.1780   -3.3170    2.5160 c         1 MOL      0.535330
     53 O9          4.8630   -4.0890    3.1390 o         1 MOL     -0.564929
     54 H23         4.6570   -5.2340    0.3320 hn        1 MOL      0.291138
     55 H24         3.0820   -3.6100    0.7140 h1        1 MOL      0.027089
     56 H25         4.3640   -2.3690    0.5500 h1        1 MOL      0.027089
     57 N5          3.4140   -2.4960    3.1560 n         1 MOL     -0.359825
     58 C19         2.1150   -2.0150    2.7060 c3        1 MOL      0.066938
     59 C20         2.1470   -0.8830    1.6640 c         1 MOL      0.254396
     60 O10         3.1710   -0.2060    1.5760 o         1 MOL     -0.584454
     61 C21         1.2880   -1.5540    3.9250 c3        1 MOL     -0.352946
     62 C22         2.1920   -0.5890    4.8710 c         1 MOL      0.794933
     63 O11         2.9160   -1.1540    5.7020 o         1 MOL     -0.675617
     64 O12         2.0330    0.6620    4.8900 o         1 MOL     -0.675617
     65 H26         3.5850   -2.3640    4.1420 hn        1 MOL      0.261952
     66 H27         1.5650   -2.8400    2.2570 h1        1 MOL      0.065851
     67 H28         1.1170   -2.4980    4.4410 hc        1 MOL      0.067365
     68 H29         0.3560   -1.0260    3.7390 hc        1 MOL      0.067365
     69 N6          1.1450   -0.7220    0.8380 n         1 MOL      0.021588
     70 C23        -0.1680   -1.2980    0.8640 c3        1 MOL      0.016638
     71 C24        -0.3130   -2.7200    0.2750 c         1 MOL      0.193374
     72 O13         0.6380   -3.2400   -0.2690 o         1 MOL     -0.369873
     73 H30         1.2270    0.0820    0.2310 hn        1 MOL      0.127670
     74 H31        -0.8280   -0.5940    0.3560 h1        1 MOL      0.046861
     75 H32        -0.5020   -1.2800    1.9080 h1        1 MOL      0.046861
     76 N7         -1.5190   -3.3530    0.3660 n         1 MOL     -0.265382
     77 C25        -1.8090   -4.5880   -0.4180 c3        1 MOL     -0.004974
     78 C26        -2.3830   -4.3580   -1.8070 c         1 MOL      0.259659
     79 O14        -2.1650   -5.2020   -2.7640 o         1 MOL     -0.476447
     80 C27        -2.8770   -5.3890    0.4340 c3        1 MOL      0.096394
     81 C28        -2.2050   -5.7920    1.7280 c3        1 MOL     -0.108920
     82 C29        -0.7510   -6.4060    1.7870 c         1 MOL      0.544690
     83 N8          0.0600   -5.9200    2.6680 n         1 MOL     -0.718039
     84 O15        -0.3490   -7.2790    1.0290 o         1 MOL     -0.539741
     85 H33        -2.3130   -2.8120    0.6840 hn        1 MOL      0.241416
     86 H34        -0.9950   -5.2780   -0.6130 h1        1 MOL      0.149737
     87 H35        -3.0360   -6.3200   -0.1060 hc        1 MOL      0.018373
     88 H36        -3.8020   -4.8200    0.6100 hc        1 MOL      0.018373
     89 H37        -2.9440   -6.5040    2.0950 hc        1 MOL     -0.001039
     90 H38        -2.1980   -4.9720    2.4540 hc        1 MOL     -0.001039
     91 H39        -0.3100   -5.3610    3.4110 hn        1 MOL      0.374658
     92 H40         0.9860   -6.3120    2.5440 hn        1 MOL      0.374658
     93 N9         -2.8660   -3.1230   -2.0550 n         1 MOL     -0.259984
     94 C30        -3.2900   -2.7030   -3.4150 c3        1 MOL     -0.122558
     95 C31        -4.7270   -2.1590   -3.5260 c         1 MOL      0.552159
     96 O16        -5.3020   -2.1340   -4.6590 o         1 MOL     -0.575070
     97 C32        -2.2480   -1.8050   -4.0300 c3        1 MOL      0.212666
     98 C33        -0.8150   -2.2810   -3.9350 c3        1 MOL     -0.163110
     99 C34        -2.2320   -0.4370   -3.3870 c3        1 MOL     -0.163110
    100 H41        -2.9530   -2.4840   -1.2830 hn        1 MOL      0.292944
    101 H42        -3.2090   -3.5510   -4.0890 h1        1 MOL      0.110017
    102 H43        -2.5390   -1.5720   -5.0520 hc        1 MOL     -0.007790
    103 H44        -0.8170   -3.2310   -4.4890 hc        1 MOL      0.033049
    104 H45        -0.0780   -1.5860   -4.3350 hc        1 MOL      0.033049
    105 H46        -0.4560   -2.5030   -2.9370 hc        1 MOL      0.033049
    106 H47        -1.9090   -0.4840   -2.3460 hc        1 MOL      0.033049
    107 H48        -1.5680    0.3120   -3.8210 hc        1 MOL      0.033049
    108 H49        -3.2660   -0.1010   -3.3220 hc        1 MOL      0.033049
    109 N10        -5.2920   -1.6830   -2.4420 n         1 MOL     -0.377742
    110 C35        -6.7040   -1.1290   -2.4980 c3        1 MOL      0.197849
    111 C36        -6.8720    0.2240   -1.6620 c         1 MOL      0.508865
    112 O17        -7.6610    1.0550   -2.0230 o         1 MOL     -0.534364
    113 C37        -7.6480   -2.2360   -1.9590 c3        1 MOL     -0.410857
    114 C38        -7.2170   -2.8700   -0.6120 c         1 MOL      0.719495
    115 N11        -8.0100   -3.7400   -0.1160 n         1 MOL     -0.781422
    116 O18        -6.1610   -2.6520   -0.0850 o         1 MOL     -0.566635
    117 H50        -4.7640   -1.6760   -1.5770 hn        1 MOL      0.147064
    118 H51        -6.9830   -0.9230   -3.5250 h1        1 MOL      0.068396
    119 H52        -7.7670   -3.0500   -2.6670 hc        1 MOL      0.120493
    120 H53        -8.5240   -1.6580   -1.6630 hc        1 MOL      0.120493
    121 H54        -8.9480   -3.8660   -0.4680 hn        1 MOL      0.365363
    122 H55        -7.6710   -4.2030    0.7190 hn        1 MOL      0.365363
    123 N12        -6.0630    0.3420   -0.5950 n         1 MOL     -0.391734
    124 C39        -6.0520    1.4080    0.3970 c3        1 MOL      0.033376
    125 C40        -4.7480    2.1570    0.5950 c         1 MOL      0.545550
    126 O19        -3.6360    1.5470    0.5740 o         1 MOL     -0.544200
    127 C41        -6.5110    0.9120    1.7800 c3        1 MOL     -0.232847
    128 C42        -7.8590    0.1080    1.6480 ca        1 MOL      0.014734
    129 C43        -8.0590   -1.2170    2.0810 ca        1 MOL     -0.090899
    130 C44        -8.9550    0.7690    1.1650 ca        1 MOL     -0.090899
    131 C45        -9.2610   -1.9100    1.9240 ca        1 MOL     -0.262419
    132 C46       -10.2620    0.2070    1.1260 ca        1 MOL     -0.262419
    133 C47       -10.3840   -1.1800    1.4230 ca        1 MOL      0.316168
    134 O20       -11.6540   -1.6480    1.4910 oh        1 MOL     -0.525337
    135 H56        -5.4510   -0.3990   -0.2850 hn        1 MOL      0.291940
    136 H57        -6.8140    2.1080    0.0310 h1        1 MOL      0.051024
    137 H58        -6.6000    1.7270    2.4870 hc        1 MOL      0.138469
    138 H59        -5.7590    0.2420    2.1930 hc        1 MOL      0.138469
    139 H60        -7.2500   -1.7270    2.5880 ha        1 MOL      0.110041
    140 H61        -8.9280    1.7750    0.7570 ha        1 MOL      0.110041
    141 H62        -9.4130   -2.9380    2.2380 ha        1 MOL      0.138044
    142 H63       -11.1210    0.7460    0.7560 ha        1 MOL      0.138044
    143 H64       -12.2950   -1.1240    0.9900 ho        1 MOL      0.372348
    144 N13        -4.9090    3.4640    0.7240 n         1 MOL     -0.568420
    145 C48        -3.9950    4.4880    1.1590 c3        1 MOL      0.116111
    146 C49        -2.8560    4.8020    0.1950 c         1 MOL      0.431092
    147 O21        -2.2080    5.8160    0.3420 o         1 MOL     -0.509517
    148 C50        -3.5540    4.1460    2.6120 c3        1 MOL      0.075589
    149 C51        -4.6220    4.3930    3.7360 c3        1 MOL     -0.341882
    150 C52        -3.9520    4.6110    5.1230 c         1 MOL      0.761400
    151 O22        -3.6190    5.8040    5.4220 o         1 MOL     -0.725176
    152 O23        -3.7900    3.7300    5.9700 o         1 MOL     -0.725176
    153 H65        -5.8780    3.7340    0.8160 hn        1 MOL      0.317946
    154 H66        -4.5820    5.4010    1.2090 h1        1 MOL      0.070902
    155 H67        -2.8630    4.9490    2.8610 hc        1 MOL      0.046916
    156 H68        -3.0410    3.1880    2.6920 hc        1 MOL      0.046916
    157 H69        -5.4310    3.6700    3.8420 hc        1 MOL      0.021031
    158 H70        -5.0830    5.3160    3.3810 hc        1 MOL      0.021031
    159 N14        -2.5860    3.9060   -0.7830 n         1 MOL     -0.353522
    160 C53        -1.5190    4.2420   -1.7940 c3        1 MOL     -0.105587
    161 C54        -2.0110    5.1300   -2.9900 c         1 MOL      0.402461
    162 O24        -1.2030    5.4120   -3.8810 o         1 MOL     -0.512658
    163 C55        -0.8470    3.0030   -2.4110 c3        1 MOL      0.052147
    164 C56        -0.3770    1.8660   -1.5050 c3        1 MOL      0.119128
    165 C57         0.7300    2.1320   -0.4410 c         1 MOL      0.619875
    166 O25         1.8580    1.7120   -0.5550 o         1 MOL     -0.690098
    167 O26         0.5370    2.7150    0.6640 o         1 MOL     -0.690098
    168 H71        -2.9880    2.9860   -0.7150 hn        1 MOL      0.234912
    169 H72        -0.6630    4.7590   -1.3630 h1        1 MOL      0.171271
    170 H73        -0.1100    3.2840   -3.1690 hc        1 MOL     -0.010391
    171 H74        -1.6590    2.5290   -2.9620 hc        1 MOL     -0.010391
    172 H75        -0.0060    1.0060   -2.0600 hc        1 MOL     -0.030987
    173 H76        -1.2330    1.5860   -0.8950 hc        1 MOL     -0.030987
    174 N15        -3.3090    5.4930   -2.9470 n         1 MOL     -0.218766
    175 C58        -3.9440    6.5170   -3.8520 c3        1 MOL     -0.120102
    176 H77        -4.5840    6.0140   -4.5770 h1        1 MOL      0.073156
    177 H78        -4.5420    7.2080   -3.2580 h1        1 MOL      0.073156
    178 H79        -3.1650    7.0700   -4.3790 h1        1 MOL      0.073156
    179 H80        -3.8370    5.1300   -2.1710 hn        1 MOL      0.193674
    180 Ca1         3.9600    2.2320    0.9430 Ca        1 MOL      1.817078
    181 O27         5.8200    1.1700    2.5790 oh        1 MOL     -0.955632
    182 O28         2.8640    2.3820    3.2310 oh        1 MOL     -0.955632
    183 H81         6.6220    0.6820    2.3980 ho        1 MOL      0.444514
    184 H82         2.1200    2.9610    3.1300 ho        1 MOL      0.444514
    185 H83         5.5130    0.8220    3.4160 ho        1 MOL      0.444514
    186 H84         2.5850    1.7210    3.8730 ho        1 MOL      0.444514
    187 O29         3.2460    4.8900    0.6420 oh        1 MOL     -0.955632
    188 H85         2.3340    5.1720    0.6820 ho        1 MOL      0.444514
    189 H86         3.7410    5.6920    0.4720 ho        1 MOL      0.444514
@<TRIPOS>BOND
     1    1    2 1   
     2    1    4 1   
     3    1    5 1   
     4    1    6 1   
     5    2    3 2   
     6    2    7 1   
     7    7    8 1   
     8    7   15 1   
     9    8    9 1   
    10    8   11 1   
    11    8   16 1   
    12    9   10 2   
    13    9   19 1   
    14   11   12 1   
    15   11   17 1   
    16   11   18 1   
    17   12   13 1   
    18   12   14 1   
    19   19   20 1   
    20   19   27 1   
    21   20   21 1   
    22   20   23 1   
    23   20   28 1   
    24   21   22 2   
    25   21   38 1   
    26   23   24 1   
    27   23   25 1   
    28   23   29 1   
    29   24   26 1   
    30   24   30 1   
    31   24   31 1   
    32   25   32 1   
    33   25   33 1   
    34   25   34 1   
    35   26   35 1   
    36   26   36 1   
    37   26   37 1   
    38   38   39 1   
    39   38   46 1   
    40   39   40 1   
    41   39   42 1   
    42   39   47 1   
    43   40   41 2   
    44   40   50 1   
    45   42   43 1   
    46   42   48 1   
    47   42   49 1   
    48   43   44 1   
    49   43   45 1   
    50   50   51 1   
    51   50   54 1   
    52   51   52 1   
    53   51   55 1   
    54   51   56 1   
    55   52   53 2   
    56   52   57 1   
    57   57   58 1   
    58   57   65 1   
    59   58   59 1   
    60   58   61 1   
    61   58   66 1   
    62   59   60 2   
    63   59   69 1   
    64   61   62 1   
    65   61   67 1   
    66   61   68 1   
    67   62   63 1   
    68   62   64 1   
    69   69   70 1   
    70   69   73 1   
    71   70   71 1   
    72   70   74 1   
    73   70   75 1   
    74   71   72 2   
    75   71   76 1   
    76   76   77 1   
    77   76   85 1   
    78   77   78 1   
    79   77   80 1   
    80   77   86 1   
    81   78   79 2   
    82   78   93 1   
    83   80   81 1   
    84   80   87 1   
    85   80   88 1   
    86   81   82 1   
    87   81   89 1   
    88   81   90 1   
    89   82   83 1   
    90   82   84 2   
    91   83   91 1   
    92   83   92 1   
    93   93   94 1   
    94   93  100 1   
    95   94   95 1   
    96   94   97 1   
    97   94  101 1   
    98   95   96 2   
    99   95  109 1   
   100   97   98 1   
   101   97   99 1   
   102   97  102 1   
   103   98  103 1   
   104   98  104 1   
   105   98  105 1   
   106   99  106 1   
   107   99  107 1   
   108   99  108 1   
   109  109  110 1   
   110  109  117 1   
   111  110  111 1   
   112  110  113 1   
   113  110  118 1   
   114  111  112 2   
   115  111  123 1   
   116  113  114 1   
   117  113  119 1   
   118  113  120 1   
   119  114  115 1   
   120  114  116 2   
   121  115  121 1   
   122  115  122 1   
   123  123  124 1   
   124  123  135 1   
   125  124  125 1   
   126  124  127 1   
   127  124  136 1   
   128  125  126 2   
   129  125  144 1   
   130  127  128 1   
   131  127  137 1   
   132  127  138 1   
   133  128  129 ar  
   134  128  130 ar  
   135  129  131 ar  
   136  129  139 1   
   137  130  132 ar  
   138  130  140 1   
   139  131  133 ar  
   140  131  141 1   
   141  132  133 ar  
   142  132  142 1   
   143  133  134 1   
   144  134  143 1   
   145  144  145 1   
   146  144  153 1   
   147  145  146 1   
   148  145  148 1   
   149  145  154 1   
   150  146  147 2   
   151  146  159 1   
   152  148  149 1   
   153  148  155 1   
   154  148  156 1   
   155  149  150 1   
   156  149  157 1   
   157  149  158 1   
   158  150  151 1   
   159  150  152 1   
   160  159  160 1   
   161  159  168 1   
   162  160  161 1   
   163  160  163 1   
   164  160  169 1   
   165  161  162 2   
   166  161  174 1   
   167  163  164 1   
   168  163  170 1   
   169  163  171 1   
   170  164  165 1   
   171  164  172 1   
   172  164  173 1   
   173  165  166 1   
   174  165  167 1   
   175  174  175 1   
   176  174  179 1   
   177  175  176 1   
   178  175  177 1   
   179  175  178 1   
   180  181  183 1   
   181  181  185 1   
   182  182  184 1   
   183  182  186 1   
   184  187  188 1   
   185  187  189 1   
@<TRIPOS>SUBSTRUCTURE
     1 MOL         1 TEMP              0 ****  ****    0 ROOT
