@<TRIPOS>MOLECULE
MOL
  181   177     1     0     0
SMALL
resp


@<TRIPOS>ATOM
      1 C1         11.1680    6.4840    0.2890 c3        1 MOL     -0.230658
      2 C2         10.1070    5.4190    0.6740 c         1 MOL      0.646474
      3 O1          9.2920    5.6140    1.5600 o         1 MOL     -0.583131
      4 H1         10.6860    7.4570    0.1890 hc        1 MOL      0.047255
      5 H2         11.9310    6.5350    1.0660 hc        1 MOL      0.047255
      6 H3         11.6310    6.2100   -0.6580 hc        1 MOL      0.047255
      7 N1         10.2350    4.2050    0.2280 n         1 MOL     -0.492913
      8 C3         11.0880    3.6060   -0.8230 c3        1 MOL      0.218200
      9 C4         11.6430    2.2510   -0.2810 c         1 MOL      0.352223
     10 O2         11.1510    1.7490    0.7480 o         1 MOL     -0.428179
     11 C5         10.1910    3.3160   -2.1100 c3        1 MOL     -0.360439
     12 C6          9.0640    2.3490   -1.7070 c         1 MOL      0.799231
     13 O3          9.0280    1.1660   -2.1580 o         1 MOL     -0.738643
     14 O4          8.1370    2.7950   -1.0430 o         1 MOL     -0.738643
     15 H4          9.5360    3.5620    0.5770 hn        1 MOL      0.364362
     16 H5         11.8640    4.3190   -1.0990 h1        1 MOL      0.023471
     17 H6         10.7280    2.8810   -2.9570 hc        1 MOL      0.076869
     18 H7          9.7120    4.1700   -2.5710 hc        1 MOL      0.076869
     19 N2         12.4690    1.4710   -1.0260 n         1 MOL     -0.541702
     20 C7         13.1600    0.1850   -0.6110 c3        1 MOL      0.500721
     21 C8         12.2610   -1.0070   -0.0670 c         1 MOL      0.165466
     22 O5         12.9170   -1.9890    0.4000 o         1 MOL     -0.543335
     23 C9         14.4240    0.4190    0.1440 c3        1 MOL     -0.514743
     24 H8         12.7120    1.8460   -1.9340 hn        1 MOL      0.280895
     25 H9         13.4050   -0.2340   -1.5900 h1        1 MOL     -0.021468
     26 H10        14.1080    0.6750    1.1580 hc        1 MOL      0.135388
     27 H11        15.0140   -0.4950    0.1390 hc        1 MOL      0.135388
     28 H12        14.9310    1.2560   -0.3290 hc        1 MOL      0.135388
     29 N3         10.9510   -0.9890    0.0360 n         1 MOL      0.155608
     30 C10        10.0890   -2.1360    0.4320 c3        1 MOL      0.033202
     31 C11         8.9800   -2.4420   -0.5930 c         1 MOL      0.391411
     32 O6          8.6240   -1.6480   -1.4390 o         1 MOL     -0.552706
     33 C12         9.3440   -1.8140    1.7570 c3        1 MOL     -0.029937
     34 C13         8.5920   -0.5120    1.8090 c         1 MOL      0.624967
     35 O7          8.3090   -0.0270    2.9110 o         1 MOL     -0.655933
     36 O8          8.1900    0.0400    0.7630 o         1 MOL     -0.655933
     37 H13        10.3980   -0.2140   -0.3090 hn        1 MOL     -0.034145
     38 H14        10.6190   -3.0910    0.4670 h1        1 MOL     -0.001907
     39 H15        10.0150   -1.8940    2.6010 hc        1 MOL     -0.001349
     40 H16         8.7120   -2.6850    1.9530 hc        1 MOL     -0.001349
     41 N4          8.5470   -3.7180   -0.5850 n         1 MOL     -0.149752
     42 C14         7.5720   -4.2700   -1.5440 c3        1 MOL     -0.531598
     43 C15         6.1270   -3.6860   -1.3920 c         1 MOL      0.699234
     44 O9          5.8820   -2.4700   -1.1590 o         1 MOL     -0.631062
     45 H17         8.9020   -4.2720    0.1810 hn        1 MOL      0.254381
     46 H18         7.4690   -5.3450   -1.4470 h1        1 MOL      0.195775
     47 H19         7.9340   -3.9430   -2.5170 h1        1 MOL      0.195775
     48 N5          5.1230   -4.5460   -1.4380 n         1 MOL     -0.428152
     49 C16         3.7430   -4.2590   -1.3050 c3        1 MOL      0.085795
     50 C17         3.3700   -3.7340    0.0950 c         1 MOL      0.536410
     51 O10         3.7240   -4.2580    1.1170 o         1 MOL     -0.526793
     52 C18         2.9630   -5.5090   -1.5900 c3        1 MOL     -0.315672
     53 C19         1.4790   -5.3100   -1.8930 c         1 MOL      0.660491
     54 N6          0.6450   -5.7000   -0.9300 n         1 MOL     -0.788885
     55 O11         1.0940   -4.5620   -2.8060 o         1 MOL     -0.545083
     56 H20         5.2410   -5.5350   -1.5920 hn        1 MOL      0.279088
     57 H21         3.4940   -3.4750   -2.0190 h1        1 MOL      0.048023
     58 H22         3.0290   -6.1210   -0.6960 hc        1 MOL      0.093535
     59 H23         3.3570   -6.0520   -2.4470 hc        1 MOL      0.093535
     60 H24         0.9800   -6.0930   -0.0630 hn        1 MOL      0.389556
     61 H25        -0.2990   -5.3630   -1.0510 hn        1 MOL      0.389556
     62 N7          2.5570   -2.6730    0.1000 n         1 MOL     -0.368243
     63 C20         1.8480   -2.2180    1.2940 c3        1 MOL     -0.020348
     64 C21         1.7660   -0.6710    1.3310 c         1 MOL      0.542869
     65 O12         2.5180    0.0200    0.6170 o         1 MOL     -0.618851
     66 H26         2.2630   -2.3300   -0.8050 hn        1 MOL      0.272224
     67 H27         2.3460   -2.5050    2.2280 h1        1 MOL      0.086666
     68 H28         0.8580   -2.6770    1.2990 h1        1 MOL      0.086666
     69 N8          0.9430    0.0060    2.0800 n         1 MOL     -0.326067
     70 C22         0.0760   -0.4640    3.2500 c3        1 MOL     -0.271041
     71 C23        -1.4620   -0.4780    2.9420 c         1 MOL      0.622738
     72 O13        -2.1550   -0.9740    3.8390 o         1 MOL     -0.543309
     73 C24         0.4190    0.2310    4.5200 c3        1 MOL      0.404217
     74 C25         1.9280    0.1150    4.8720 c3        1 MOL     -0.429825
     75 O14         0.1010    1.5780    4.3400 oh        1 MOL     -0.627776
     76 H29         0.9230    0.9930    1.8400 hn        1 MOL      0.333976
     77 H30         0.3850   -1.4930    3.4410 h1        1 MOL      0.110589
     78 H31        -0.1790   -0.1010    5.3830 h1        1 MOL      0.033272
     79 H32         0.3390    2.0810    5.1260 ho        1 MOL      0.406153
     80 H33         2.4050   -0.7660    4.4430 hc        1 MOL      0.115479
     81 H34         2.4340    0.9220    4.3340 hc        1 MOL      0.115479
     82 H35         2.1750    0.1260    5.9320 hc        1 MOL      0.115479
     83 N9         -1.9740   -0.0020    1.8230 n         1 MOL     -0.438289
     84 C26        -3.4560    0.0520    1.5950 c3        1 MOL      0.091150
     85 C27        -3.7890   -0.2500    0.1130 c         1 MOL      0.474820
     86 O15        -3.0160    0.0930   -0.7890 o         1 MOL     -0.579038
     87 C28        -4.0780    1.4340    2.0310 c3        1 MOL      0.163098
     88 C29        -3.2540    2.6580    1.6630 c3        1 MOL     -0.162191
     89 C30        -4.4500    1.3750    3.5010 c3        1 MOL     -0.605459
     90 C31        -3.9290    3.9800    1.8060 c3        1 MOL      0.061839
     91 H36        -1.3610    0.5090    1.2090 hn        1 MOL      0.211729
     92 H37        -3.8660   -0.7570    2.2060 h1        1 MOL      0.109355
     93 H38        -5.0820    1.4270    1.6240 hc        1 MOL      0.080926
     94 H39        -3.0510    2.6360    0.5850 hc        1 MOL      0.058978
     95 H40        -2.3120    2.6790    2.2090 hc        1 MOL      0.058978
     96 H41        -5.0780    0.5180    3.7390 hc        1 MOL      0.155667
     97 H42        -3.4790    1.2320    3.9740 hc        1 MOL      0.155667
     98 H43        -4.9260    2.3170    3.7750 hc        1 MOL      0.155667
     99 H44        -3.1830    4.7760    1.8310 hc        1 MOL     -0.018012
    100 H45        -4.7130    4.1820    1.0720 hc        1 MOL     -0.018012
    101 H46        -4.4030    4.0940    2.7710 hc        1 MOL     -0.018012
    102 N10        -4.8360   -0.9190   -0.2880 n         1 MOL     -0.373787
    103 C32        -5.8300   -1.5840    0.5960 c3        1 MOL      0.035122
    104 C33        -7.2420   -1.5200   -0.1320 c         1 MOL      0.506244
    105 O16        -7.3280   -1.7330   -1.3440 o         1 MOL     -0.506845
    106 C34        -5.3530   -3.0700    0.7440 c3        1 MOL     -0.303780
    107 C35        -6.0630   -3.6630    1.9060 c         1 MOL      0.724671
    108 O17        -5.5020   -3.6460    3.0170 o         1 MOL     -0.729178
    109 O18        -7.2440   -4.0760    1.7360 o         1 MOL     -0.729178
    110 H47        -5.0260   -0.9870   -1.2760 hn        1 MOL      0.318934
    111 H48        -5.9520   -1.0310    1.5300 h1        1 MOL      0.042012
    112 H49        -4.2700   -2.9910    0.8420 hc        1 MOL      0.065183
    113 H50        -5.7140   -3.6440   -0.1100 hc        1 MOL      0.065183
    114 N11        -8.2810   -1.2760    0.6330 n         1 MOL     -0.479422
    115 C36        -9.6750   -1.1800    0.1440 c3        1 MOL      0.377961
    116 C37       -10.5250   -0.3060    1.1150 c         1 MOL      0.097750
    117 O19       -10.7880   -0.7870    2.2250 o         1 MOL     -0.500330
    118 C38       -10.2480   -2.5740   -0.1470 c3        1 MOL     -0.198357
    119 C39       -11.5760   -2.4830   -0.9020 ca        1 MOL      0.047031
    120 C40       -12.7180   -2.2610   -0.1250 ca        1 MOL     -0.155770
    121 C41       -11.6260   -2.2720   -2.3020 ca        1 MOL     -0.155770
    122 C42       -13.9280   -1.8320   -0.7730 ca        1 MOL     -0.112812
    123 C43       -12.8240   -1.9250   -2.9170 ca        1 MOL     -0.112812
    124 C44       -13.9890   -1.6990   -2.1630 ca        1 MOL     -0.146527
    125 H51        -8.0660   -0.7930    1.4990 hn        1 MOL      0.316267
    126 H52        -9.5850   -0.6560   -0.8090 h1        1 MOL     -0.044269
    127 H53       -10.3510   -3.1330    0.7760 hc        1 MOL      0.112408
    128 H54        -9.5380   -3.0930   -0.7930 hc        1 MOL      0.112408
    129 H55       -12.7210   -2.4320    0.9470 ha        1 MOL      0.142396
    130 H56       -10.8060   -2.4190   -2.9960 ha        1 MOL      0.142396
    131 H57       -14.7810   -1.6280   -0.1490 ha        1 MOL      0.101177
    132 H58       -12.9100   -1.7900   -3.9920 ha        1 MOL      0.101177
    133 H59       -14.9000   -1.3740   -2.6350 ha        1 MOL      0.099442
    134 N12       -11.0040    0.8220    0.7660 n         1 MOL      0.148311
    135 C45       -11.2490    1.3360   -0.5910 c3        1 MOL      0.008497
    136 C46       -10.1090    2.2060   -1.1430 c         1 MOL      0.520518
    137 O20       -10.0880    2.3890   -2.3670 o         1 MOL     -0.518321
    138 C47       -12.6020    2.1120   -0.5020 c3        1 MOL     -0.030047
    139 C48       -12.4760    2.7090    0.8900 c3        1 MOL     -0.068574
    140 C49       -11.7260    1.6450    1.6580 c3        1 MOL     -0.058511
    141 H60       -11.3880    0.4880   -1.2630 h1        1 MOL      0.076709
    142 H61       -12.6640    2.7760   -1.3620 hc        1 MOL      0.021785
    143 H62       -13.3700    1.3430   -0.5490 hc        1 MOL      0.021785
    144 H63       -11.8070    3.5520    0.7950 hc        1 MOL      0.026096
    145 H64       -13.3910    2.9860    1.4120 hc        1 MOL      0.026096
    146 H65       -11.0600    2.1120    2.3890 h1        1 MOL      0.047019
    147 H66       -12.4750    1.0790    2.1990 h1        1 MOL      0.047019
    148 N13        -9.1560    2.6730   -0.3090 n         1 MOL     -0.599892
    149 C50        -7.9610    3.3220   -0.8820 c3        1 MOL      0.417335
    150 C51        -7.3770    4.4570   -0.1240 c         1 MOL      0.343537
    151 O21        -7.4840    4.5680    1.0850 o         1 MOL     -0.551889
    152 C52        -6.7800    2.3410   -1.0300 c3        1 MOL     -0.153515
    153 C53        -6.8820    1.3480   -2.2630 c3        1 MOL      0.050642
    154 C54        -6.4490    1.9600   -3.5830 c         1 MOL      0.651618
    155 O22        -5.3190    1.4800   -4.0430 o         1 MOL     -0.715581
    156 O23        -7.1810    2.7580   -4.2250 o         1 MOL     -0.715581
    157 H67        -9.2140    2.4480    0.6720 hn        1 MOL      0.287583
    158 H68        -8.1840    3.6280   -1.9090 h1        1 MOL      0.021979
    159 H69        -6.6780    1.7640   -0.1050 hc        1 MOL      0.007751
    160 H70        -5.8490    2.8790   -1.1490 hc        1 MOL      0.007751
    161 H71        -7.9260    1.0690   -2.3550 hc        1 MOL     -0.026825
    162 H72        -6.2810    0.4680   -2.0470 hc        1 MOL     -0.026825
    163 N14        -6.5950    5.3920   -0.7280 n         1 MOL     -0.388854
    164 C55        -6.3380    5.6130   -2.2120 c3        1 MOL     -0.021643
    165 H73        -7.1840    6.1400   -2.6520 h1        1 MOL      0.052478
    166 H74        -5.4340    6.2090   -2.3400 h1        1 MOL      0.052478
    167 H75        -6.2130    4.6500   -2.7080 h1        1 MOL      0.052478
    168 H76        -6.3010    6.1240   -0.0960 hn        1 MOL      0.267398
    169 Ca1         6.7640    0.2950   -1.3050 Ca        1 MOL      1.729922
    170 O24         6.0900    1.7320   -3.5280 oh        1 MOL     -0.771406
    171 H77         5.9890    2.5810   -3.9500 ho        1 MOL      0.387728
    172 H78         5.7660    1.1030   -4.1750 ho        1 MOL      0.387728
    173 O25         4.9470    2.3330   -0.7040 oh        1 MOL     -0.771406
    174 H79         4.5810    2.5360   -1.5720 ho        1 MOL      0.387728
    175 H80         4.2290    2.4860   -0.0970 ho        1 MOL      0.387728
    176 O26         5.1880   -0.3290    0.7990 oh        1 MOL     -0.771406
    177 H81         5.3930   -0.8880    1.5420 ho        1 MOL      0.387728
    178 H82         4.2490   -0.4470    0.6600 ho        1 MOL      0.387728
    179 O27         4.4390   -0.3200   -2.2900 oh        1 MOL     -0.771406
    180 H83         3.6530    0.0860   -1.9200 ho        1 MOL      0.387728
    181 H84         4.1050   -1.0240   -2.8430 ho        1 MOL      0.387728
@<TRIPOS>BOND
     1    1    2 1   
     2    1    4 1   
     3    1    5 1   
     4    1    6 1   
     5    2    3 2   
     6    2    7 1   
     7    7    8 1   
     8    7   15 1   
     9    8    9 1   
    10    8   11 1   
    11    8   16 1   
    12    9   10 2   
    13    9   19 1   
    14   11   12 1   
    15   11   17 1   
    16   11   18 1   
    17   12   13 1   
    18   12   14 1   
    19   19   20 1   
    20   19   24 1   
    21   20   21 1   
    22   20   23 1   
    23   20   25 1   
    24   21   22 2   
    25   21   29 1   
    26   23   26 1   
    27   23   27 1   
    28   23   28 1   
    29   29   30 1   
    30   29   37 1   
    31   30   31 1   
    32   30   33 1   
    33   30   38 1   
    34   31   32 2   
    35   31   41 1   
    36   33   34 1   
    37   33   39 1   
    38   33   40 1   
    39   34   35 1   
    40   34   36 1   
    41   41   42 1   
    42   41   45 1   
    43   42   43 1   
    44   42   46 1   
    45   42   47 1   
    46   43   44 2   
    47   43   48 1   
    48   48   49 1   
    49   48   56 1   
    50   49   50 1   
    51   49   52 1   
    52   49   57 1   
    53   50   51 2   
    54   50   62 1   
    55   52   53 1   
    56   52   58 1   
    57   52   59 1   
    58   53   54 1   
    59   53   55 2   
    60   54   60 1   
    61   54   61 1   
    62   62   63 1   
    63   62   66 1   
    64   63   64 1   
    65   63   67 1   
    66   63   68 1   
    67   64   65 2   
    68   64   69 1   
    69   69   70 1   
    70   69   76 1   
    71   70   71 1   
    72   70   73 1   
    73   70   77 1   
    74   71   72 2   
    75   71   83 1   
    76   73   74 1   
    77   73   75 1   
    78   73   78 1   
    79   74   80 1   
    80   74   81 1   
    81   74   82 1   
    82   75   79 1   
    83   83   84 1   
    84   83   91 1   
    85   84   85 1   
    86   84   87 1   
    87   84   92 1   
    88   85   86 2   
    89   85  102 1   
    90   87   88 1   
    91   87   89 1   
    92   87   93 1   
    93   88   90 1   
    94   88   94 1   
    95   88   95 1   
    96   89   96 1   
    97   89   97 1   
    98   89   98 1   
    99   90   99 1   
   100   90  100 1   
   101   90  101 1   
   102  102  103 1   
   103  102  110 1   
   104  103  104 1   
   105  103  106 1   
   106  103  111 1   
   107  104  105 2   
   108  104  114 1   
   109  106  107 1   
   110  106  112 1   
   111  106  113 1   
   112  107  108 1   
   113  107  109 1   
   114  114  115 1   
   115  114  125 1   
   116  115  116 1   
   117  115  118 1   
   118  115  126 1   
   119  116  117 2   
   120  116  134 1   
   121  118  119 1   
   122  118  127 1   
   123  118  128 1   
   124  119  120 ar  
   125  119  121 ar  
   126  120  122 ar  
   127  120  129 1   
   128  121  123 ar  
   129  121  130 1   
   130  122  124 ar  
   131  122  131 1   
   132  123  124 ar  
   133  123  132 1   
   134  124  133 1   
   135  134  135 1   
   136  134  140 1   
   137  135  136 1   
   138  135  138 1   
   139  135  141 1   
   140  136  137 2   
   141  136  148 1   
   142  138  139 1   
   143  138  142 1   
   144  138  143 1   
   145  139  140 1   
   146  139  144 1   
   147  139  145 1   
   148  140  146 1   
   149  140  147 1   
   150  148  149 1   
   151  148  157 1   
   152  149  150 1   
   153  149  152 1   
   154  149  158 1   
   155  150  151 2   
   156  150  163 1   
   157  152  153 1   
   158  152  159 1   
   159  152  160 1   
   160  153  154 1   
   161  153  161 1   
   162  153  162 1   
   163  154  155 1   
   164  154  156 1   
   165  163  164 1   
   166  163  168 1   
   167  164  165 1   
   168  164  166 1   
   169  164  167 1   
   170  170  171 1   
   171  170  172 1   
   172  173  174 1   
   173  173  175 1   
   174  176  177 1   
   175  176  178 1   
   176  179  180 1   
   177  179  181 1   
@<TRIPOS>SUBSTRUCTURE
     1 MOL         1 TEMP              0 ****  ****    0 ROOT
