@<TRIPOS>MOLECULE
MOL
  192   187     1     0     0
SMALL
resp


@<TRIPOS>ATOM
      1 C1         -9.2280    0.0040   -2.6690 c3        1 MOL     -0.388048
      2 C2         -8.0710   -0.2330   -1.6620 c         1 MOL      0.694968
      3 O1         -6.9360   -0.4340   -2.0290 o         1 MOL     -0.663149
      4 H1         -9.2560    1.0570   -2.9500 hc        1 MOL      0.098739
      5 H2         -9.0660   -0.6040   -3.5590 hc        1 MOL      0.098739
      6 H3        -10.1750   -0.2730   -2.2070 hc        1 MOL      0.098739
      7 N1         -8.4750   -0.4440   -0.4220 n         1 MOL     -0.349682
      8 C3         -7.7240   -0.5190    0.8130 c3        1 MOL     -0.082968
      9 C4         -7.0940   -1.8740    1.0860 c         1 MOL      0.602850
     10 O2         -6.8650   -2.2280    2.2210 o         1 MOL     -0.437298
     11 C5         -8.4990    0.0510    2.0150 c3        1 MOL     -0.189666
     12 C6         -9.7780   -0.7540    2.3900 c         1 MOL      0.679810
     13 O3        -10.7870   -0.7030    1.6300 o         1 MOL     -0.629602
     14 O4         -9.8340   -1.4450    3.4390 o         1 MOL     -0.629602
     15 H4         -9.4670   -0.4240   -0.2420 hn        1 MOL      0.166510
     16 H5         -6.8310    0.1070    0.7360 h1        1 MOL      0.121789
     17 H6         -8.8230    1.0640    1.7690 hc        1 MOL      0.067164
     18 H7         -7.8610    0.1640    2.8840 hc        1 MOL      0.067164
     19 N2         -6.6500   -2.6070    0.0170 n         1 MOL     -0.461323
     20 C7         -6.0100   -3.9650    0.0850 c3        1 MOL     -0.013369
     21 C8         -4.7080   -3.9130    0.8670 c         1 MOL      0.508779
     22 O5         -4.5480   -4.7410    1.6970 o         1 MOL     -0.529790
     23 C9         -5.6920   -4.5910   -1.2870 c3        1 MOL      0.048421
     24 C10        -6.7970   -4.5580   -2.3270 c3        1 MOL      0.019602
     25 C11        -7.9860   -5.4290   -2.0960 c3        1 MOL      0.016692
     26 C12        -9.1900   -5.3100   -3.0300 c3        1 MOL     -0.042733
     27 N3         -8.9160   -5.5410   -4.4900 n4        1 MOL     -0.275540
     28 H8         -6.8040   -2.1760   -0.8880 hn        1 MOL      0.209076
     29 H9         -6.6210   -4.6190    0.7090 h1        1 MOL      0.100273
     30 H10        -5.2070   -5.5640   -1.1860 hc        1 MOL      0.015021
     31 H11        -4.9580   -3.9080   -1.7070 hc        1 MOL      0.015021
     32 H12        -6.2510   -4.8470   -3.2280 hc        1 MOL     -0.013527
     33 H13        -7.1650   -3.5500   -2.4840 hc        1 MOL     -0.013527
     34 H14        -8.2770   -5.3770   -1.0450 hc        1 MOL      0.027276
     35 H15        -7.6670   -6.4740   -2.1490 hc        1 MOL      0.027276
     36 H16        -9.5570   -4.3120   -2.8020 hx        1 MOL      0.106555
     37 H17       -10.0280   -5.9420   -2.7350 hx        1 MOL      0.106555
     38 H18        -8.7530   -6.5260   -4.6730 hn        1 MOL      0.271179
     39 H19        -9.6670   -5.1950   -5.0690 hn        1 MOL      0.271179
     40 H20        -8.0750   -5.0780   -4.7960 hn        1 MOL      0.271179
     41 N4         -3.7330   -3.0230    0.6420 n         1 MOL     -0.437013
     42 C13        -3.7610   -1.9280   -0.3660 c3        1 MOL      0.086485
     43 C14        -4.0210   -0.5630    0.1060 c         1 MOL      0.414731
     44 O6         -4.2690   -0.3600    1.2850 o         1 MOL     -0.508528
     45 C15        -2.4060   -1.9820   -1.2600 c3        1 MOL     -0.491071
     46 C16        -1.0630   -2.0850   -0.4520 c         1 MOL      0.715169
     47 O7         -0.7720   -1.2900    0.4600 o         1 MOL     -0.639793
     48 O8         -0.3220   -3.0740   -0.6590 o         1 MOL     -0.639793
     49 H21        -2.9460   -3.1330    1.2630 hn        1 MOL      0.362881
     50 H22        -4.5710   -2.0380   -1.0900 h1        1 MOL      0.124258
     51 H23        -2.3770   -1.1690   -1.9810 hc        1 MOL      0.107027
     52 H24        -2.4620   -2.8250   -1.9490 hc        1 MOL      0.107027
     53 N5         -4.0770    0.3830   -0.8100 n         1 MOL     -0.052005
     54 C17        -4.3130    1.7890   -0.4720 c3        1 MOL     -0.177845
     55 C18        -3.1930    2.4540    0.2660 c         1 MOL      0.851859
     56 O9         -2.0890    1.9680    0.3550 o         1 MOL     -0.868422
     57 H25        -4.0840    0.1350   -1.7950 hn        1 MOL      0.200802
     58 H26        -5.2500    2.0150    0.0270 h1        1 MOL      0.062331
     59 H27        -4.4570    2.3240   -1.4030 h1        1 MOL      0.062331
     60 N6         -3.4640    3.7370    0.6260 n         1 MOL     -0.552060
     61 C19        -2.5210    4.7150    1.1760 c3        1 MOL      0.344017
     62 C20        -2.9910    6.1640    0.7300 c         1 MOL      0.313604
     63 O10        -4.1930    6.3830    0.4420 o         1 MOL     -0.512511
     64 C21        -2.5380    4.6290    2.6960 c3        1 MOL     -0.291507
     65 C22        -2.1220    3.2550    3.2250 c         1 MOL      0.587234
     66 O11        -0.9670    2.7780    2.9250 o         1 MOL     -0.635494
     67 O12        -2.9980    2.5370    3.7560 o         1 MOL     -0.635494
     68 H28        -4.4170    4.0500    0.5670 hn        1 MOL      0.290042
     69 H29        -1.5090    4.5410    0.7880 h1        1 MOL      0.051732
     70 H30        -3.5840    4.8330    2.8930 hc        1 MOL      0.084206
     71 H31        -1.8640    5.4020    3.0470 hc        1 MOL      0.084206
     72 N7         -2.2090    7.2840    0.7150 n         1 MOL     -0.273048
     73 C23        -0.7940    7.3870    1.0100 c3        1 MOL     -0.262497
     74 C24         0.1480    6.6870    0.0630 c         1 MOL      0.580328
     75 O13        -0.1440    6.5670   -1.1410 o         1 MOL     -0.490607
     76 H32        -2.7700    8.0650    0.4370 hn        1 MOL      0.292625
     77 H33        -0.5790    7.1630    2.0510 h1        1 MOL      0.120510
     78 H34        -0.5550    8.4450    0.8900 h1        1 MOL      0.120510
     79 N8          1.2300    6.1300    0.6080 n         1 MOL     -0.529524
     80 C25         2.1350    5.3250   -0.1660 c3        1 MOL     -0.035513
     81 C26         1.4370    4.0240   -0.5230 c         1 MOL      0.891276
     82 O14         0.7100    3.4390    0.2760 o         1 MOL     -0.736918
     83 C27         3.4160    5.0760    0.6210 c3        1 MOL      0.449291
     84 C28         4.5400    4.2550   -0.0380 c3        1 MOL     -0.455595
     85 O15         3.2740    4.4340    1.9190 oh        1 MOL     -0.725359
     86 H35         1.4660    6.2750    1.5720 hn        1 MOL      0.342162
     87 H36         2.4420    5.8700   -1.0530 h1        1 MOL      0.051356
     88 H37         3.8330    6.0760    0.7950 h1        1 MOL      0.001261
     89 H38         4.0580    3.9840    2.2450 ho        1 MOL      0.441085
     90 H39         5.4070    4.4050    0.5960 hc        1 MOL      0.118574
     91 H40         4.2850    3.1960   -0.0910 hc        1 MOL      0.118574
     92 H41         4.7780    4.6380   -1.0240 hc        1 MOL      0.118574
     93 N9          1.6620    3.6160   -1.8030 n         1 MOL     -0.724223
     94 C29         1.0550    2.4460   -2.5100 c3        1 MOL      0.117302
     95 C30         1.4870    1.0120   -1.9210 c         1 MOL      0.189872
     96 O16         1.2120    0.5740   -0.7650 o         1 MOL     -0.356225
     97 C31        -0.4550    2.6610   -2.6290 c3        1 MOL      0.012302
     98 C32        -0.9910    3.7930   -3.5560 c3        1 MOL      0.027638
     99 C33        -1.1940    1.4830   -3.0760 c3        1 MOL     -0.483911
    100 C34        -2.3450    4.4000   -3.2250 c3        1 MOL     -0.110195
    101 H42         2.2410    4.1930   -2.3870 hn        1 MOL      0.340827
    102 H43         1.4070    2.4980   -3.5460 h1        1 MOL      0.053340
    103 H44        -0.7640    2.8840   -1.6120 hc        1 MOL      0.205969
    104 H45        -0.9810    3.5120   -4.6050 hc        1 MOL     -0.011320
    105 H46        -0.2180    4.5560   -3.4390 hc        1 MOL     -0.011320
    106 H47        -0.7720    1.3040   -4.0680 hc        1 MOL      0.117992
    107 H48        -0.8650    0.6370   -2.4760 hc        1 MOL      0.117992
    108 H49        -2.2780    1.5380   -3.0150 hc        1 MOL      0.117992
    109 H50        -2.9460    3.7810   -2.5550 hc        1 MOL      0.034915
    110 H51        -2.1600    5.3710   -2.7820 hc        1 MOL      0.034915
    111 H52        -2.8730    4.4760   -4.1780 hc        1 MOL      0.034915
    112 N10         2.1590    0.3300   -2.8480 n         1 MOL     -0.045244
    113 C35         2.5480   -1.0740   -2.7240 c3        1 MOL     -0.209128
    114 C36         4.0250   -1.3800   -2.8930 c         1 MOL      0.623180
    115 O17         4.3660   -2.5400   -2.9490 o         1 MOL     -0.537019
    116 C37         1.6330   -1.9150   -3.6120 c3        1 MOL      0.344734
    117 C38         1.6900   -1.5970   -5.1100 c3        1 MOL     -0.336386
    118 O18         0.2460   -1.7740   -3.2730 oh        1 MOL     -0.510558
    119 H53         2.4440    0.8560   -3.6580 hn        1 MOL      0.188019
    120 H54         2.3250   -1.4120   -1.7110 h1        1 MOL      0.130855
    121 H55         1.8970   -2.9680   -3.5110 h1        1 MOL      0.033907
    122 H56         0.0470   -2.4550   -2.6320 ho        1 MOL      0.294421
    123 H57         0.8990   -2.1250   -5.6360 hc        1 MOL      0.077661
    124 H58         1.3870   -0.5480   -5.1290 hc        1 MOL      0.077661
    125 H59         2.6510   -1.7520   -5.6080 hc        1 MOL      0.077661
    126 N11         4.8680   -0.3100   -3.0080 n         1 MOL     -0.452601
    127 C39         6.3560   -0.4760   -2.8830 c3        1 MOL     -0.262899
    128 C40         6.7960   -0.6340   -1.4330 c         1 MOL      0.655225
    129 O19         6.7060    0.3120   -0.6410 o         1 MOL     -0.523646
    130 C41         7.0030    0.6840   -3.6830 c3        1 MOL      0.435237
    131 C42         8.5890    0.6860   -3.5940 c3        1 MOL     -0.376233
    132 O20         6.6230    0.6460   -5.0330 oh        1 MOL     -0.598388
    133 H60         4.5180    0.6390   -3.0220 hn        1 MOL      0.249715
    134 H61         6.6290   -1.3670   -3.4550 h1        1 MOL      0.138428
    135 H62         6.6820    1.6680   -3.3250 h1        1 MOL     -0.010523
    136 H63         5.7400    1.0230   -5.1010 ho        1 MOL      0.377538
    137 H64         9.0380    1.1300   -4.4950 hc        1 MOL      0.105767
    138 H65         8.9540    1.2280   -2.7200 hc        1 MOL      0.105767
    139 H66         8.9900   -0.3180   -3.5110 hc        1 MOL      0.105767
    140 N12         7.2530   -1.8380   -1.0420 n         1 MOL     -0.477244
    141 C43         7.5010   -2.2630    0.3170 c3        1 MOL      0.113745
    142 C44         6.4700   -1.8470    1.4050 c         1 MOL      0.625134
    143 O21         6.7340   -0.9940    2.2750 o         1 MOL     -0.522589
    144 C45         8.8650   -1.7000    0.7050 c3        1 MOL     -0.464269
    145 C46        10.0320   -2.4600    0.0560 c3        1 MOL      0.163742
    146 C47        11.2470   -1.5380    0.0460 c3        1 MOL     -0.256399
    147 C48        12.3330   -1.9570   -0.8940 c3        1 MOL      0.056049
    148 N13        12.9100   -3.2880   -0.6250 n4        1 MOL     -0.078590
    149 H67         7.4350   -2.4590   -1.8160 hn        1 MOL      0.280688
    150 H68         7.7100   -3.3210    0.4550 h1        1 MOL      0.052818
    151 H69         8.9570   -1.8410    1.7790 hc        1 MOL      0.161330
    152 H70         8.8060   -0.6660    0.3720 hc        1 MOL      0.161330
    153 H71         9.7650   -2.6410   -0.9900 hc        1 MOL     -0.000620
    154 H72        10.2100   -3.3870    0.6030 hc        1 MOL     -0.000620
    155 H73        11.5500   -1.6710    1.0810 hc        1 MOL      0.114782
    156 H74        10.9750   -0.5120   -0.2030 hc        1 MOL      0.114782
    157 H75        13.1450   -1.2350   -0.7960 hx        1 MOL      0.056663
    158 H76        11.9430   -1.9250   -1.9120 hx        1 MOL      0.056663
    159 H77        12.2460   -4.0380   -0.7580 hn        1 MOL      0.176831
    160 H78        13.6930   -3.3980   -1.2450 hn        1 MOL      0.176831
    161 H79        13.3150   -3.5160    0.2690 hn        1 MOL      0.176831
    162 N14         5.3410   -2.6390    1.5320 n         1 MOL     -0.608672
    163 C49         4.2240   -2.2480    2.3790 c3        1 MOL      0.439368
    164 C50         2.9170   -2.0420    1.6420 c         1 MOL      0.381320
    165 O22         2.3370   -0.9040    1.5550 o         1 MOL     -0.705888
    166 C51         4.1620   -3.2070    3.5860 c3        1 MOL     -0.202317
    167 C52         5.0630   -2.7740    4.7480 c3        1 MOL     -0.154960
    168 C53         4.7180   -3.6540    5.9510 c         1 MOL      0.654232
    169 O23         4.5730   -4.9070    5.7960 o         1 MOL     -0.634193
    170 O24         4.6800   -3.0740    7.1080 o         1 MOL     -0.634193
    171 H80         5.3110   -3.4380    0.9230 hn        1 MOL      0.274499
    172 H81         4.4670   -1.2850    2.8210 h1        1 MOL      0.035925
    173 H82         4.4240   -4.2190    3.2830 hc        1 MOL      0.060066
    174 H83         3.1140   -3.1590    3.9130 hc        1 MOL      0.060066
    175 H84         4.8770   -1.7160    4.9270 hc        1 MOL      0.043067
    176 H85         6.1250   -2.8450    4.5200 hc        1 MOL      0.043067
    177 N15         2.3160   -3.0300    0.9640 n         1 MOL     -0.261190
    178 C54         2.6970   -4.4710    0.8220 c3        1 MOL     -0.155178
    179 H86         3.1200   -4.8290    1.7620 h1        1 MOL      0.082043
    180 H87         1.8140   -5.0600    0.5750 h1        1 MOL      0.082043
    181 H88         3.4370   -4.5750    0.0280 h1        1 MOL      0.082043
    182 H89         1.4520   -2.8000    0.5020 hn        1 MOL      0.274840
    183 Ca1         0.1350    0.8100    1.6080 Ca        1 MOL      1.845547
    184 O25         0.4710   -0.5630    3.8420 oh        1 MOL     -0.898329
    185 H90         0.7320   -1.4690    3.9620 ho        1 MOL      0.433611
    186 H91         0.7860   -0.1130    4.6270 ho        1 MOL      0.433611
    187 O26        -2.2170    0.2400    2.7640 oh        1 MOL     -0.898329
    188 H92        -3.0230   -0.0180    2.3030 ho        1 MOL      0.433611
    189 H93        -2.4690    1.0210    3.2630 ho        1 MOL      0.433611
    190 O27         1.9830    2.3330    2.9630 oh        1 MOL     -0.898329
    191 H94         2.5240    2.9470    2.4680 ho        1 MOL      0.433611
    192 H95         1.6450    2.8590    3.6910 ho        1 MOL      0.433611
@<TRIPOS>BOND
     1    1    2 1   
     2    1    4 1   
     3    1    5 1   
     4    1    6 1   
     5    2    3 2   
     6    2    7 1   
     7    7    8 1   
     8    7   15 1   
     9    8    9 1   
    10    8   11 1   
    11    8   16 1   
    12    9   10 2   
    13    9   19 1   
    14   11   12 1   
    15   11   17 1   
    16   11   18 1   
    17   12   13 1   
    18   12   14 1   
    19   19   20 1   
    20   19   28 1   
    21   20   21 1   
    22   20   23 1   
    23   20   29 1   
    24   21   22 2   
    25   21   41 1   
    26   23   24 1   
    27   23   30 1   
    28   23   31 1   
    29   24   25 1   
    30   24   32 1   
    31   24   33 1   
    32   25   26 1   
    33   25   34 1   
    34   25   35 1   
    35   26   27 1   
    36   26   36 1   
    37   26   37 1   
    38   27   38 1   
    39   27   39 1   
    40   27   40 1   
    41   41   42 1   
    42   41   49 1   
    43   42   43 1   
    44   42   45 1   
    45   42   50 1   
    46   43   44 2   
    47   43   53 1   
    48   45   46 1   
    49   45   51 1   
    50   45   52 1   
    51   46   47 1   
    52   46   48 1   
    53   53   54 1   
    54   53   57 1   
    55   54   55 1   
    56   54   58 1   
    57   54   59 1   
    58   55   56 2   
    59   55   60 1   
    60   60   61 1   
    61   60   68 1   
    62   61   62 1   
    63   61   64 1   
    64   61   69 1   
    65   62   63 2   
    66   62   72 1   
    67   64   65 1   
    68   64   70 1   
    69   64   71 1   
    70   65   66 1   
    71   65   67 1   
    72   72   73 1   
    73   72   76 1   
    74   73   74 1   
    75   73   77 1   
    76   73   78 1   
    77   74   75 2   
    78   74   79 1   
    79   79   80 1   
    80   79   86 1   
    81   80   81 1   
    82   80   83 1   
    83   80   87 1   
    84   81   82 2   
    85   81   93 1   
    86   83   84 1   
    87   83   85 1   
    88   83   88 1   
    89   84   90 1   
    90   84   91 1   
    91   84   92 1   
    92   85   89 1   
    93   93   94 1   
    94   93  101 1   
    95   94   95 1   
    96   94   97 1   
    97   94  102 1   
    98   95   96 2   
    99   95  112 1   
   100   97   98 1   
   101   97   99 1   
   102   97  103 1   
   103   98  100 1   
   104   98  104 1   
   105   98  105 1   
   106   99  106 1   
   107   99  107 1   
   108   99  108 1   
   109  100  109 1   
   110  100  110 1   
   111  100  111 1   
   112  112  113 1   
   113  112  119 1   
   114  113  114 1   
   115  113  116 1   
   116  113  120 1   
   117  114  115 2   
   118  114  126 1   
   119  116  117 1   
   120  116  118 1   
   121  116  121 1   
   122  117  123 1   
   123  117  124 1   
   124  117  125 1   
   125  118  122 1   
   126  126  127 1   
   127  126  133 1   
   128  127  128 1   
   129  127  130 1   
   130  127  134 1   
   131  128  129 2   
   132  128  140 1   
   133  130  131 1   
   134  130  132 1   
   135  130  135 1   
   136  131  137 1   
   137  131  138 1   
   138  131  139 1   
   139  132  136 1   
   140  140  141 1   
   141  140  149 1   
   142  141  142 1   
   143  141  144 1   
   144  141  150 1   
   145  142  143 2   
   146  142  162 1   
   147  144  145 1   
   148  144  151 1   
   149  144  152 1   
   150  145  146 1   
   151  145  153 1   
   152  145  154 1   
   153  146  147 1   
   154  146  155 1   
   155  146  156 1   
   156  147  148 1   
   157  147  157 1   
   158  147  158 1   
   159  148  159 1   
   160  148  160 1   
   161  148  161 1   
   162  162  163 1   
   163  162  171 1   
   164  163  164 1   
   165  163  166 1   
   166  163  172 1   
   167  164  165 2   
   168  164  177 1   
   169  166  167 1   
   170  166  173 1   
   171  166  174 1   
   172  167  168 1   
   173  167  175 1   
   174  167  176 1   
   175  168  169 1   
   176  168  170 1   
   177  177  178 1   
   178  177  182 1   
   179  178  179 1   
   180  178  180 1   
   181  178  181 1   
   182  184  185 1   
   183  184  186 1   
   184  187  188 1   
   185  187  189 1   
   186  190  191 1   
   187  190  192 1   
@<TRIPOS>SUBSTRUCTURE
     1 MOL         1 TEMP              0 ****  ****    0 ROOT
