@<TRIPOS>MOLECULE
MOL
  192   187     1     0     0
SMALL
resp


@<TRIPOS>ATOM
      1 C1          4.5350   -1.8380   -2.4420 c3        1 MOL     -0.143335
      2 C2          3.5830   -2.7510   -1.5930 c         1 MOL      0.553257
      3 O1          2.4740   -2.3610   -1.2330 o         1 MOL     -0.504111
      4 H1          5.0500   -2.4450   -3.1880 hc        1 MOL      0.026081
      5 H2          3.9480   -1.0680   -2.9440 hc        1 MOL      0.026081
      6 H3          5.2690   -1.3680   -1.7880 hc        1 MOL      0.026081
      7 N1          4.0500   -3.9350   -1.2110 n         1 MOL     -0.214395
      8 C3          3.3700   -4.8830   -0.4150 c3        1 MOL     -0.085712
      9 C4          1.8220   -5.0430   -0.5800 c         1 MOL      0.806371
     10 O2          1.1170   -5.2150    0.3770 o         1 MOL     -0.529388
     11 C5          3.8160   -4.6160    1.0830 c3        1 MOL     -0.617095
     12 C6          5.2510   -4.1200    1.1100 c         1 MOL      1.077223
     13 O3          5.4490   -2.9020    1.3150 o         1 MOL     -0.823187
     14 O4          6.2830   -4.8680    1.0120 o         1 MOL     -0.823187
     15 H4          5.0490   -4.0510   -1.3060 hn        1 MOL      0.105678
     16 H5          3.8220   -5.8460   -0.6700 h1        1 MOL      0.087213
     17 H6          3.5920   -5.4330    1.7700 hc        1 MOL      0.168670
     18 H7          3.2530   -3.7920    1.5040 hc        1 MOL      0.168670
     19 N2          1.3640   -5.0140   -1.8160 n         1 MOL     -0.687251
     20 C7         -0.0900   -5.2410   -2.2020 c3        1 MOL     -0.073473
     21 C8         -0.7550   -6.4440   -1.6460 c         1 MOL      0.545802
     22 O5         -0.1590   -7.5010   -1.5910 o         1 MOL     -0.571431
     23 C9         -0.3180   -5.3170   -3.7290 c3        1 MOL      0.200993
     24 C10         0.4560   -6.4730   -4.5410 c3        1 MOL      0.156888
     25 C11         0.0170   -3.9040   -4.3100 c3        1 MOL     -0.238677
     26 C12         0.3530   -6.3510   -6.0530 c3        1 MOL     -0.114539
     27 H8          2.0440   -4.7420   -2.5010 hn        1 MOL      0.268001
     28 H9         -0.5830   -4.3540   -1.8080 h1        1 MOL      0.198336
     29 H10        -1.3270   -5.4930   -4.0980 hc        1 MOL     -0.005845
     30 H11         0.1010   -7.4450   -4.1830 hc        1 MOL     -0.039808
     31 H12         1.5140   -6.3590   -4.3360 hc        1 MOL     -0.039808
     32 H13        -0.2890   -3.1260   -3.6100 hc        1 MOL      0.048624
     33 H14         1.0770   -3.8000   -4.5490 hc        1 MOL      0.048624
     34 H15        -0.5060   -3.7820   -5.2640 hc        1 MOL      0.048624
     35 H16         0.5660   -5.3560   -6.4480 hc        1 MOL      0.012781
     36 H17         1.0150   -7.1060   -6.4870 hc        1 MOL      0.012781
     37 H18        -0.5740   -6.7470   -6.4790 hc        1 MOL      0.012781
     38 N3         -2.0060   -6.4460   -1.1390 n         1 MOL     -0.470420
     39 C13        -2.9860   -5.3470   -0.7370 c3        1 MOL      0.021608
     40 C14        -3.9140   -5.9110    0.3710 c         1 MOL      0.464221
     41 O6         -4.4990   -6.9870    0.2180 o         1 MOL     -0.529202
     42 C15        -3.8710   -4.8450   -1.9070 c3        1 MOL     -0.324873
     43 C16        -5.0670   -4.0050   -1.4130 c         1 MOL      0.856817
     44 O7         -5.0170   -3.2780   -0.4240 o         1 MOL     -0.746975
     45 O8         -6.1370   -4.0180   -2.0610 o         1 MOL     -0.746975
     46 H19        -2.3510   -7.3720   -0.9340 hn        1 MOL      0.291146
     47 H20        -2.3950   -4.5230   -0.3400 h1        1 MOL      0.074662
     48 H21        -4.2390   -5.7130   -2.4540 hc        1 MOL      0.066457
     49 H22        -3.3230   -4.2040   -2.5950 hc        1 MOL      0.066457
     50 N4         -4.0540   -5.2060    1.4830 n         1 MOL     -0.261771
     51 C17        -4.8870   -5.5680    2.6180 c3        1 MOL     -0.034015
     52 C18        -5.6440   -4.3710    3.2730 c         1 MOL      0.595130
     53 O9         -5.8100   -4.3030    4.4720 o         1 MOL     -0.601398
     54 H23        -3.4230   -4.4250    1.6560 hn        1 MOL      0.250413
     55 H24        -4.3630   -6.1430    3.3880 h1        1 MOL      0.048564
     56 H25        -5.6930   -6.2440    2.3230 h1        1 MOL      0.048564
     57 N5         -5.9160   -3.2790    2.5710 n         1 MOL     -0.532531
     58 C19        -6.4690   -2.0270    3.1330 c3        1 MOL      0.090000
     59 C20        -7.5760   -1.3690    2.3220 c         1 MOL      0.466004
     60 O10        -8.4210   -0.6780    2.8930 o         1 MOL     -0.580254
     61 C21        -5.2520   -1.0200    3.3460 c3        1 MOL     -0.199952
     62 C22        -4.3000   -0.7210    2.1870 c         1 MOL      0.716174
     63 O11        -3.1710   -1.1690    2.0920 o         1 MOL     -0.680244
     64 O12        -4.7320    0.0650    1.3370 o         1 MOL     -0.680244
     65 H26        -5.5730   -3.1610    1.6240 hn        1 MOL      0.293018
     66 H27        -6.7930   -2.1580    4.1720 h1        1 MOL      0.077753
     67 H28        -4.6020   -1.4940    4.0890 hc        1 MOL      0.042880
     68 H29        -5.5650   -0.1280    3.8740 hc        1 MOL      0.042880
     69 N6         -7.4720   -1.5860    0.9920 n         1 MOL     -0.314258
     70 C23        -8.4170   -0.8900    0.1530 c3        1 MOL     -0.145750
     71 C24        -8.2610    0.6470    0.0390 c         1 MOL      0.576823
     72 O13        -9.0280    1.2590   -0.6320 o         1 MOL     -0.609691
     73 H30        -6.7610   -2.1470    0.5440 hn        1 MOL      0.292578
     74 H31        -9.4510   -1.0710    0.4360 h1        1 MOL      0.091012
     75 H32        -8.2810   -1.3140   -0.8480 h1        1 MOL      0.091012
     76 N7         -7.3010    1.2390    0.7620 n         1 MOL     -0.225670
     77 C25        -7.1380    2.6770    0.8720 c3        1 MOL      0.018488
     78 C26        -6.8610    3.5090   -0.4110 c         1 MOL      0.365819
     79 O14        -7.2360    4.6550   -0.5930 o         1 MOL     -0.512217
     80 C27        -8.1770    3.3390    1.8410 c3        1 MOL      0.270077
     81 C28        -8.2000    2.8000    3.3060 c3        1 MOL     -0.321233
     82 C29        -7.3750    3.5930    4.2940 c         1 MOL      0.605301
     83 N8         -7.0930    3.1500    5.4850 n         1 MOL     -0.720863
     84 O15        -6.8170    4.6420    3.9520 o         1 MOL     -0.556527
     85 H33        -6.6200    0.6120    1.1680 hn        1 MOL      0.175844
     86 H34        -6.1700    2.7060    1.3730 h1        1 MOL      0.074881
     87 H35        -9.1680    3.2780    1.4090 hc        1 MOL     -0.043497
     88 H36        -8.0480    4.4150    1.8740 hc        1 MOL     -0.043497
     89 H37        -7.7600    1.8030    3.3020 hc        1 MOL      0.081053
     90 H38        -9.2130    2.6940    3.6930 hc        1 MOL      0.081053
     91 H39        -7.4620    2.2700    5.8240 hn        1 MOL      0.330252
     92 H40        -6.5560    3.7620    6.0750 hn        1 MOL      0.330252
     93 N9         -6.0990    2.9800   -1.3860 n         1 MOL     -0.060794
     94 C30        -5.6870    3.6150   -2.5940 c3        1 MOL     -0.284775
     95 C31        -4.2040    3.2610   -3.0820 c         1 MOL      0.530633
     96 O16        -3.8430    3.5020   -4.2160 o         1 MOL     -0.542362
     97 C32        -6.6030    3.3690   -3.8230 c3        1 MOL      0.342397
     98 C33        -6.5380    1.9090   -4.3520 c3        1 MOL     -0.364063
     99 C34        -8.0640    3.7470   -3.5320 c3        1 MOL     -0.364063
    100 H41        -5.8570    2.0080   -1.2240 hn        1 MOL      0.171014
    101 H42        -5.6330    4.6950   -2.4160 h1        1 MOL      0.130029
    102 H43        -6.2580    3.9790   -4.6540 hc        1 MOL     -0.028177
    103 H44        -5.5290    1.6360   -4.6290 hc        1 MOL      0.080886
    104 H45        -6.9380    1.3660   -3.4870 hc        1 MOL      0.080886
    105 H46        -7.1570    1.6980   -5.2180 hc        1 MOL      0.080886
    106 H47        -8.5200    3.0530   -2.8320 hc        1 MOL      0.080886
    107 H48        -8.3680    4.7220   -3.1590 hc        1 MOL      0.080886
    108 H49        -8.5150    3.6560   -4.5190 hc        1 MOL      0.080886
    109 N10        -3.3250    2.7610   -2.1770 n         1 MOL     -0.424145
    110 C35        -1.8890    2.5530   -2.4420 c3        1 MOL      0.272518
    111 C36        -1.1300    3.0860   -1.1790 c         1 MOL      0.487474
    112 O17        -1.7750    3.2560   -0.1450 o         1 MOL     -0.501315
    113 C37        -1.7440    1.0510   -2.7140 c3        1 MOL     -0.265073
    114 C38        -0.3040    0.5880   -2.8220 c         1 MOL      0.542450
    115 N11         0.0750   -0.3380   -1.9370 n         1 MOL     -0.639784
    116 O18         0.5760    1.0890   -3.6120 o         1 MOL     -0.591136
    117 H50        -3.6350    2.6790   -1.2210 hn        1 MOL      0.206192
    118 H51        -1.5830    3.0200   -3.3690 h1        1 MOL      0.026305
    119 H52        -2.2370    0.8560   -3.6670 hc        1 MOL      0.111323
    120 H53        -2.1630    0.4380   -1.9130 hc        1 MOL      0.111323
    121 H54        -0.5430   -0.7460   -1.2570 hn        1 MOL      0.338473
    122 H55         0.9970   -0.7130   -2.0760 hn        1 MOL      0.338473
    123 N12         0.1500    3.2980   -1.2710 n         1 MOL     -0.578900
    124 C39         1.0330    3.4590   -0.1300 c3        1 MOL      0.437064
    125 C40         2.3890    4.0970   -0.5460 c         1 MOL      0.421759
    126 O19         2.7380    4.0100   -1.6910 o         1 MOL     -0.562982
    127 C41         1.3730    2.1510    0.6480 c3        1 MOL     -0.402412
    128 C42         1.9090    2.4090    2.0320 ca        1 MOL      0.064346
    129 C43         3.3020    2.4550    2.2140 ca        1 MOL     -0.127793
    130 C44         1.0680    2.7630    3.0870 ca        1 MOL     -0.127793
    131 C45         3.8560    2.7890    3.4680 ca        1 MOL     -0.308618
    132 C46         1.6280    3.2110    4.3060 ca        1 MOL     -0.308618
    133 C47         3.0220    3.2280    4.5010 ca        1 MOL      0.409336
    134 O20         3.5690    3.4990    5.7040 oh        1 MOL     -0.565545
    135 H56         0.6600    3.0510   -2.1170 hn        1 MOL      0.298503
    136 H57         0.6560    4.1930    0.5730 h1        1 MOL     -0.029154
    137 H58         1.9740    1.4990    0.0120 hc        1 MOL      0.145842
    138 H59         0.4130    1.6480    0.7580 hc        1 MOL      0.145842
    139 H60         3.8970    2.1520    1.3740 ha        1 MOL      0.145535
    140 H61        -0.0010    2.7780    2.9600 ha        1 MOL      0.145535
    141 H62         4.9280    2.9650    3.5080 ha        1 MOL      0.154666
    142 H63         0.9830    3.4830    5.1220 ha        1 MOL      0.154666
    143 H64         4.5230    3.6150    5.7110 ho        1 MOL      0.398738
    144 N13         3.0810    4.7920    0.3850 n         1 MOL     -0.297089
    145 C48         4.3840    5.4430    0.1180 c3        1 MOL      0.031847
    146 C49         5.4980    4.8740    0.9950 c         1 MOL      0.591194
    147 O21         5.7250    5.2350    2.1060 o         1 MOL     -0.588072
    148 C50         4.1510    6.9510    0.1010 c3        1 MOL     -0.005829
    149 C51         3.1260    7.4140   -1.0010 c3        1 MOL     -0.197298
    150 C52         3.4220    8.9540   -1.2980 c         1 MOL      0.702586
    151 O22         4.0770    9.2470   -2.2820 o         1 MOL     -0.677034
    152 O23         3.0160    9.8580   -0.5510 o         1 MOL     -0.677034
    153 H65         2.6850    4.9470    1.3020 hn        1 MOL      0.252508
    154 H66         4.6340    5.2290   -0.9240 h1        1 MOL      0.171823
    155 H67         5.0930    7.4710   -0.0590 hc        1 MOL      0.007147
    156 H68         3.6940    7.1950    1.0610 hc        1 MOL      0.007147
    157 H69         2.1260    7.1770   -0.6630 hc        1 MOL      0.025046
    158 H70         3.3240    6.8200   -1.9000 hc        1 MOL      0.025046
    159 N14         6.2060    3.8430    0.5390 n         1 MOL     -0.716277
    160 C53         5.9910    3.0400   -0.7720 c3        1 MOL      0.303963
    161 C54         6.2830    3.8670   -2.0220 c         1 MOL      0.457733
    162 O24         7.0730    4.7750   -1.9660 o         1 MOL     -0.527242
    163 C55         6.9190    1.8110   -0.7580 c3        1 MOL     -0.419890
    164 C56         6.6410    0.9470    0.4670 c3        1 MOL      0.378439
    165 C57         7.4650   -0.3540    0.7850 c         1 MOL      0.454068
    166 O25         7.8090   -1.2330   -0.0500 o         1 MOL     -0.694600
    167 O26         7.7120   -0.5940    1.9940 o         1 MOL     -0.694600
    168 H71         6.9490    3.5910    1.1670 hn        1 MOL      0.388216
    169 H72         4.9430    2.7570   -0.8250 h1        1 MOL     -0.003400
    170 H73         7.9330    2.1870   -0.6460 hc        1 MOL      0.066480
    171 H74         6.7720    1.2880   -1.7000 hc        1 MOL      0.066480
    172 H75         5.5900    0.6520    0.3790 hc        1 MOL     -0.048039
    173 H76         6.7150    1.5280    1.3760 hc        1 MOL     -0.048039
    174 N15         5.6300    3.5760   -3.1710 n         1 MOL     -0.244760
    175 C58         5.7510    4.2580   -4.4170 c3        1 MOL     -0.186208
    176 H77         6.3020    3.6340   -5.1210 h1        1 MOL      0.087339
    177 H78         4.7580    4.4660   -4.8160 h1        1 MOL      0.087339
    178 H79         6.2870    5.1960   -4.2680 h1        1 MOL      0.087339
    179 H80         5.1420    2.6940   -3.1910 hn        1 MOL      0.259671
    180 Ca1         8.1430   -3.1610    1.5620 Ca        1 MOL      1.678127
    181 O27         7.3670   -3.9660    3.9280 oh        1 MOL     -0.781084
    182 H81         7.2700   -3.3880    4.6920 ho        1 MOL      0.372313
    183 H82         7.1400   -4.8300    4.2540 ho        1 MOL      0.372313
    184 O28         9.2040   -5.5850    1.5280 oh        1 MOL     -0.781084
    185 H83        10.0500   -5.7060    1.0930 ho        1 MOL      0.372313
    186 H84         8.9470   -6.4670    1.8030 ho        1 MOL      0.372313
    187 O29        10.5580   -3.0120    0.5730 oh        1 MOL     -0.781084
    188 H85        11.4550   -2.7960    0.8230 ho        1 MOL      0.372313
    189 H86        10.6090   -3.2150   -0.3550 ho        1 MOL      0.372313
    190 O30        10.2380   -2.5440    3.3700 oh        1 MOL     -0.781084
    191 H87        10.4180   -1.7110    3.8060 ho        1 MOL      0.372313
    192 H88        11.0800   -2.9910    3.3460 ho        1 MOL      0.372313
@<TRIPOS>BOND
     1    1    2 1   
     2    1    4 1   
     3    1    5 1   
     4    1    6 1   
     5    2    3 2   
     6    2    7 1   
     7    7    8 1   
     8    7   15 1   
     9    8    9 1   
    10    8   11 1   
    11    8   16 1   
    12    9   10 2   
    13    9   19 1   
    14   11   12 1   
    15   11   17 1   
    16   11   18 1   
    17   12   13 1   
    18   12   14 1   
    19   19   20 1   
    20   19   27 1   
    21   20   21 1   
    22   20   23 1   
    23   20   28 1   
    24   21   22 2   
    25   21   38 1   
    26   23   24 1   
    27   23   25 1   
    28   23   29 1   
    29   24   26 1   
    30   24   30 1   
    31   24   31 1   
    32   25   32 1   
    33   25   33 1   
    34   25   34 1   
    35   26   35 1   
    36   26   36 1   
    37   26   37 1   
    38   38   39 1   
    39   38   46 1   
    40   39   40 1   
    41   39   42 1   
    42   39   47 1   
    43   40   41 2   
    44   40   50 1   
    45   42   43 1   
    46   42   48 1   
    47   42   49 1   
    48   43   44 1   
    49   43   45 1   
    50   50   51 1   
    51   50   54 1   
    52   51   52 1   
    53   51   55 1   
    54   51   56 1   
    55   52   53 2   
    56   52   57 1   
    57   57   58 1   
    58   57   65 1   
    59   58   59 1   
    60   58   61 1   
    61   58   66 1   
    62   59   60 2   
    63   59   69 1   
    64   61   62 1   
    65   61   67 1   
    66   61   68 1   
    67   62   63 1   
    68   62   64 1   
    69   69   70 1   
    70   69   73 1   
    71   70   71 1   
    72   70   74 1   
    73   70   75 1   
    74   71   72 2   
    75   71   76 1   
    76   76   77 1   
    77   76   85 1   
    78   77   78 1   
    79   77   80 1   
    80   77   86 1   
    81   78   79 2   
    82   78   93 1   
    83   80   81 1   
    84   80   87 1   
    85   80   88 1   
    86   81   82 1   
    87   81   89 1   
    88   81   90 1   
    89   82   83 1   
    90   82   84 2   
    91   83   91 1   
    92   83   92 1   
    93   93   94 1   
    94   93  100 1   
    95   94   95 1   
    96   94   97 1   
    97   94  101 1   
    98   95   96 2   
    99   95  109 1   
   100   97   98 1   
   101   97   99 1   
   102   97  102 1   
   103   98  103 1   
   104   98  104 1   
   105   98  105 1   
   106   99  106 1   
   107   99  107 1   
   108   99  108 1   
   109  109  110 1   
   110  109  117 1   
   111  110  111 1   
   112  110  113 1   
   113  110  118 1   
   114  111  112 2   
   115  111  123 1   
   116  113  114 1   
   117  113  119 1   
   118  113  120 1   
   119  114  115 1   
   120  114  116 2   
   121  115  121 1   
   122  115  122 1   
   123  123  124 1   
   124  123  135 1   
   125  124  125 1   
   126  124  127 1   
   127  124  136 1   
   128  125  126 2   
   129  125  144 1   
   130  127  128 1   
   131  127  137 1   
   132  127  138 1   
   133  128  129 ar  
   134  128  130 ar  
   135  129  131 ar  
   136  129  139 1   
   137  130  132 ar  
   138  130  140 1   
   139  131  133 ar  
   140  131  141 1   
   141  132  133 ar  
   142  132  142 1   
   143  133  134 1   
   144  134  143 1   
   145  144  145 1   
   146  144  153 1   
   147  145  146 1   
   148  145  148 1   
   149  145  154 1   
   150  146  147 2   
   151  146  159 1   
   152  148  149 1   
   153  148  155 1   
   154  148  156 1   
   155  149  150 1   
   156  149  157 1   
   157  149  158 1   
   158  150  151 1   
   159  150  152 1   
   160  159  160 1   
   161  159  168 1   
   162  160  161 1   
   163  160  163 1   
   164  160  169 1   
   165  161  162 2   
   166  161  174 1   
   167  163  164 1   
   168  163  170 1   
   169  163  171 1   
   170  164  165 1   
   171  164  172 1   
   172  164  173 1   
   173  165  166 1   
   174  165  167 1   
   175  174  175 1   
   176  174  179 1   
   177  175  176 1   
   178  175  177 1   
   179  175  178 1   
   180  181  182 1   
   181  181  183 1   
   182  184  185 1   
   183  184  186 1   
   184  187  188 1   
   185  187  189 1   
   186  190  191 1   
   187  190  192 1   
@<TRIPOS>SUBSTRUCTURE
     1 MOL         1 TEMP              0 ****  ****    0 ROOT
