@<TRIPOS>MOLECULE
MOL
  197   188     1     0     0
SMALL
resp


@<TRIPOS>ATOM
      1 C1          1.2910    2.7170    2.5650 c3        1 MOL     -0.323621
      2 C2          2.2970    2.1500    1.6000 c         1 MOL      0.719463
      3 O1          2.0620    1.8660    0.4220 o         1 MOL     -0.579220
      4 H1          1.1140    2.0010    3.3670 hc        1 MOL      0.093590
      5 H2          1.6760    3.6460    2.9860 hc        1 MOL      0.093590
      6 H3          0.3560    2.9140    2.0420 hc        1 MOL      0.093590
      7 N1          3.5570    2.0270    2.1330 n         1 MOL     -0.625276
      8 C3          4.7420    1.6180    1.3950 c3        1 MOL      0.273653
      9 C4          5.3030    0.2500    1.8670 c         1 MOL      0.234151
     10 O2          6.3300   -0.2320    1.3720 o         1 MOL     -0.441259
     11 C5          5.8530    2.7390    1.5380 c3        1 MOL     -0.359493
     12 C6          6.4300    2.9560    2.9600 c         1 MOL      0.860033
     13 O3          5.8570    2.5240    3.9650 o         1 MOL     -0.734588
     14 O4          7.3740    3.7170    3.1230 o         1 MOL     -0.734588
     15 H4          3.6760    2.1890    3.1240 hn        1 MOL      0.333106
     16 H5          4.4560    1.5450    0.3490 h1        1 MOL      0.057579
     17 H6          5.3750    3.6790    1.2400 hc        1 MOL      0.088347
     18 H7          6.7170    2.5930    0.8960 hc        1 MOL      0.088347
     19 N2          4.5970   -0.2960    2.8730 n         1 MOL     -0.311389
     20 C7          5.0180   -1.4480    3.7380 c3        1 MOL      0.266826
     21 C8          5.4340   -2.6860    3.0480 c         1 MOL      0.379585
     22 O5          6.4740   -3.3310    3.4100 o         1 MOL     -0.511877
     23 C9          5.9160   -0.9240    4.8650 c3        1 MOL     -0.224200
     24 C10         7.2880   -0.3570    4.4930 c3        1 MOL      0.040908
     25 C11         8.0990    0.1640    5.6970 c3        1 MOL      0.017482
     26 C12         9.3250    0.8940    5.1250 c3        1 MOL     -0.034410
     27 N3          9.0420    2.3040    4.7320 n4        1 MOL     -0.283623
     28 H8          3.7460    0.2070    3.0490 hn        1 MOL      0.225937
     29 H9          4.0990   -1.7910    4.2040 h1        1 MOL      0.041548
     30 H10         6.1070   -1.7950    5.5000 hc        1 MOL      0.052718
     31 H11         5.3130   -0.2200    5.4220 hc        1 MOL      0.052718
     32 H12         7.1250    0.5270    3.8630 hc        1 MOL      0.046890
     33 H13         7.8670   -1.0580    3.8980 hc        1 MOL      0.046890
     34 H14         8.4930   -0.6280    6.3350 hc        1 MOL      0.028930
     35 H15         7.6400    0.8710    6.3810 hc        1 MOL      0.028930
     36 H16         9.8030    0.3300    4.3220 hx        1 MOL      0.066376
     37 H17        10.0240    0.9790    5.9610 hx        1 MOL      0.066376
     38 H18         9.7800    2.7110    4.1780 hn        1 MOL      0.294902
     39 H19         8.2220    2.4810    4.1670 hn        1 MOL      0.294902
     40 H20         8.9510    2.8750    5.5590 hn        1 MOL      0.294902
     41 N4          4.7640   -2.9650    1.9100 n         1 MOL     -0.447552
     42 C13         5.1510   -4.0410    0.9550 c3        1 MOL      0.547864
     43 C14         5.7380   -3.5480   -0.4260 c         1 MOL      0.346758
     44 O6          6.0560   -4.3680   -1.3120 o         1 MOL     -0.559811
     45 C15         3.8790   -4.8400    0.7340 c3        1 MOL     -0.706290
     46 C16         2.6930   -4.1990    0.1280 c         1 MOL      0.894003
     47 O7          2.6390   -3.0230   -0.0630 o         1 MOL     -0.717441
     48 O8          1.7170   -4.8870   -0.2330 o         1 MOL     -0.717441
     49 H21         4.0030   -2.3620    1.6530 hn        1 MOL      0.239329
     50 H22         5.9640   -4.6190    1.3820 h1        1 MOL     -0.000950
     51 H23         3.6110   -5.0420    1.7740 hc        1 MOL      0.145960
     52 H24         4.0430   -5.8180    0.2670 hc        1 MOL      0.145960
     53 N5          5.8700   -2.2470   -0.5580 n         1 MOL     -0.326168
     54 C17         6.3300   -1.6500   -1.7940 c3        1 MOL      0.223909
     55 C18         7.3960   -0.6250   -1.4820 c         1 MOL      0.457728
     56 O9          8.4890   -0.9410   -1.0980 o         1 MOL     -0.527200
     57 H25         5.7220   -1.6760    0.2620 hn        1 MOL      0.196891
     58 H26         5.4910   -1.2370   -2.3390 h1        1 MOL      0.018828
     59 H27         6.7970   -2.3610   -2.4730 h1        1 MOL      0.018828
     60 N6          7.1870    0.6580   -1.7160 n         1 MOL     -0.348123
     61 C19         6.0530    1.3460   -2.3940 c3        1 MOL      0.068424
     62 C20         5.9360    2.7550   -1.7750 c         1 MOL      0.467861
     63 O10         6.9340    3.4490   -1.6000 o         1 MOL     -0.518912
     64 C21         6.2400    1.5260   -3.9100 c3        1 MOL     -0.458870
     65 C22         6.5800    0.2950   -4.6510 c         1 MOL      0.624997
     66 N7          5.6220   -0.5070   -4.9940 n         1 MOL     -0.736700
     67 O11         7.7260   -0.0830   -4.9560 o         1 MOL     -0.536880
     68 H28         7.9460    1.2490   -1.3870 hn        1 MOL      0.284871
     69 H29         5.0970    0.8730   -2.2250 h1        1 MOL      0.051052
     70 H30         7.0990    2.1820   -4.0500 hc        1 MOL      0.158242
     71 H31         5.4270    2.0040   -4.4550 hc        1 MOL      0.158242
     72 H32         4.6620   -0.2120   -4.9720 hn        1 MOL      0.352549
     73 H33         5.9490   -1.4050   -5.3140 hn        1 MOL      0.352549
     74 N8          4.7720    3.3820   -1.7000 n         1 MOL     -0.190897
     75 C23         3.3600    3.0480   -2.1990 c3        1 MOL     -0.202466
     76 C24         2.3860    4.1410   -1.8010 c         1 MOL      0.635934
     77 O12         2.7040    5.2330   -1.2750 o         1 MOL     -0.541572
     78 H34         4.8560    4.3230   -1.3510 hn        1 MOL      0.208111
     79 H35         2.9240    2.2110   -1.6370 h1        1 MOL      0.060064
     80 H36         3.3150    2.9250   -3.2820 h1        1 MOL      0.060064
     81 N9          1.1480    3.7550   -1.8800 n         1 MOL     -0.462427
     82 C25        -0.0300    4.4940   -1.5570 c3        1 MOL      0.168007
     83 C26        -1.1890    3.6080   -0.9890 c         1 MOL      0.515252
     84 O13        -1.0870    2.3890   -1.1160 o         1 MOL     -0.476081
     85 C27        -0.4790    5.1760   -2.9010 c3        1 MOL     -0.222972
     86 C28        -1.4130    6.3360   -2.6030 ca        1 MOL      0.075246
     87 C29        -2.8010    6.2820   -2.8710 ca        1 MOL     -0.112495
     88 C30        -0.9030    7.5200   -2.0080 ca        1 MOL     -0.112495
     89 C31        -3.7110    7.3260   -2.5830 ca        1 MOL     -0.353229
     90 C32        -1.8060    8.6230   -1.6970 ca        1 MOL     -0.353229
     91 C33        -3.1900    8.5590   -2.0340 ca        1 MOL      0.401563
     92 O14        -4.0040    9.5880   -1.7310 oh        1 MOL     -0.458867
     93 H37         1.0810    2.7840   -2.1380 hn        1 MOL      0.276641
     94 H38         0.1470    5.2550   -0.7980 h1        1 MOL      0.035671
     95 H39        -1.0340    4.3820   -3.4020 hc        1 MOL      0.084908
     96 H40         0.3170    5.5290   -3.5600 hc        1 MOL      0.084908
     97 H41        -3.1680    5.3460   -3.2620 ha        1 MOL      0.132997
     98 H42         0.1070    7.7540   -1.7250 ha        1 MOL      0.132997
     99 H43        -4.7610    7.2150   -2.7680 ha        1 MOL      0.173294
    100 H44        -1.3820    9.5060   -1.2300 ha        1 MOL      0.173294
    101 H45        -3.4640   10.1680   -1.1830 ho        1 MOL      0.345377
    102 N10        -2.2710    4.2110   -0.5100 n         1 MOL     -0.480519
    103 C34        -3.4020    3.4050    0.0240 c3        1 MOL      0.010469
    104 C35        -4.1260    2.6150   -1.1300 c         1 MOL      0.468750
    105 O15        -4.1070    2.9300   -2.3160 o         1 MOL     -0.519580
    106 C36        -4.3710    4.2990    0.8790 c3        1 MOL      0.244149
    107 C37        -5.4320    5.0040    0.0570 c3        1 MOL      0.148485
    108 C38        -5.0050    3.4660    1.9880 c3        1 MOL     -0.227880
    109 C39        -5.8000    6.3900    0.6250 c3        1 MOL     -0.229593
    110 H46        -2.3610    5.2190   -0.5510 hn        1 MOL      0.266573
    111 H47        -2.9590    2.6010    0.6180 h1        1 MOL      0.067718
    112 H48        -3.7710    5.1210    1.2670 hc        1 MOL     -0.035613
    113 H49        -6.2520    4.2930   -0.0740 hc        1 MOL     -0.010023
    114 H50        -5.0970    5.2110   -0.9480 hc        1 MOL     -0.010023
    115 H51        -5.5170    4.1800    2.6420 hc        1 MOL      0.043967
    116 H52        -5.8590    2.9050    1.6090 hc        1 MOL      0.043967
    117 H53        -4.3360    2.7940    2.5220 hc        1 MOL      0.043967
    118 H54        -6.8470    6.4900    0.3300 hc        1 MOL      0.048422
    119 H55        -5.9340    6.2720    1.7030 hc        1 MOL      0.048422
    120 H56        -5.1250    7.1870    0.3110 hc        1 MOL      0.048422
    121 N11        -4.8020    1.5680   -0.7530 n         1 MOL     -0.378329
    122 C40        -5.4640    0.6320   -1.6600 c3        1 MOL      0.028219
    123 C41        -5.2400   -0.8150   -1.1590 c         1 MOL      0.584960
    124 O16        -5.0620   -1.0030    0.0330 o         1 MOL     -0.457283
    125 C42        -6.9010    0.9860   -1.7570 c3        1 MOL     -0.067155
    126 O17        -7.5900    0.7220   -0.5250 oh        1 MOL     -0.484164
    127 H57        -4.8490    1.4000    0.2360 hn        1 MOL      0.260243
    128 H58        -4.9720    0.7540   -2.6330 h1        1 MOL      0.078737
    129 H59        -7.3710    0.3630   -2.5200 h1        1 MOL      0.066539
    130 H60        -6.9770    2.0340   -2.0310 h1        1 MOL      0.066539
    131 H61        -8.4650    1.0440   -0.7570 ho        1 MOL      0.394474
    132 N12        -5.3740   -1.8070   -2.1080 n         1 MOL     -0.492484
    133 C43        -5.6530   -3.2010   -1.8220 c3        1 MOL      0.019256
    134 C44        -6.9700   -3.3930   -0.8940 c         1 MOL      0.484158
    135 O18        -7.0090   -4.3480   -0.1290 o         1 MOL     -0.477605
    136 C45        -4.4110   -3.8940   -1.2390 c3        1 MOL     -0.233946
    137 H62        -5.4910   -1.5280   -3.0650 hn        1 MOL      0.282146
    138 H63        -5.9110   -3.6570   -2.7770 h1        1 MOL      0.067561
    139 H64        -4.3640   -3.7420   -0.1620 hc        1 MOL      0.081032
    140 H65        -4.4120   -4.9590   -1.4820 hc        1 MOL      0.081032
    141 H66        -3.5010   -3.5480   -1.7270 hc        1 MOL      0.081032
    142 N13        -7.9860   -2.5210   -1.0380 n         1 MOL     -0.551927
    143 C46        -9.2920   -2.5660   -0.4480 c3        1 MOL      0.469535
    144 C47        -9.1750   -2.3260    1.0840 c         1 MOL      0.115093
    145 O19       -10.0360   -2.5910    1.9180 o         1 MOL     -0.481553
    146 C48       -10.0890   -3.8040   -0.8610 c3        1 MOL     -0.259229
    147 H67        -7.9420   -1.8110   -1.7460 hn        1 MOL      0.267330
    148 H68        -9.8830   -1.7340   -0.8510 h1        1 MOL     -0.031377
    149 H69       -11.0650   -3.7590   -0.3810 hc        1 MOL      0.069646
    150 H70       -10.1790   -3.7720   -1.9540 hc        1 MOL      0.069646
    151 H71        -9.5020   -4.6890   -0.6220 hc        1 MOL      0.069646
    152 N14        -8.0290   -1.8340    1.5090 n         1 MOL      0.128808
    153 C49        -7.7170   -1.5950    2.9680 c3        1 MOL     -0.091481
    154 C50        -8.3740   -0.4290    3.6400 c         1 MOL      0.348550
    155 O20        -8.5930   -0.3840    4.8910 o         1 MOL     -0.507165
    156 C51        -6.2180   -1.6150    3.2310 c3        1 MOL      0.124366
    157 C52        -5.7070   -2.0100    4.6360 c3        1 MOL     -0.157536
    158 C53        -4.2190   -2.4150    4.6580 c         1 MOL      0.584226
    159 O21        -3.5310   -2.0440    5.7280 o         1 MOL     -0.642734
    160 O22        -3.7660   -3.1890    3.7460 o         1 MOL     -0.642734
    161 H72        -7.3560   -1.5390    0.8110 hn        1 MOL      0.053174
    162 H73        -8.0530   -2.4940    3.4910 h1        1 MOL      0.115019
    163 H74        -5.8090   -0.6450    2.9710 hc        1 MOL      0.007311
    164 H75        -5.8480   -2.3640    2.5230 hc        1 MOL      0.007311
    165 H76        -6.2530   -2.8950    4.9670 hc        1 MOL      0.036202
    166 H77        -5.8820   -1.2160    5.3600 hc        1 MOL      0.036202
    167 N15        -8.7830    0.5970    2.8750 n         1 MOL     -0.102470
    168 C54        -9.7900    1.5580    3.3410 c3        1 MOL     -0.182651
    169 H78       -10.2420    1.1920    4.2640 h1        1 MOL      0.087222
    170 H79        -9.3150    2.5210    3.5280 h1        1 MOL      0.087222
    171 H80       -10.5630    1.6740    2.5800 h1        1 MOL      0.087222
    172 H81        -8.5420    0.5740    1.8950 hn        1 MOL      0.077023
    173 Ca1         0.2880   -5.2270   -2.2780 Ca        1 MOL      1.760846
    174 O23        -2.4060   -5.6880   -3.3320 oh        1 MOL     -0.818493
    175 H82        -3.2790   -5.5700   -2.9680 ho        1 MOL      0.399583
    176 H83        -2.5380   -5.6930   -4.2840 ho        1 MOL      0.399583
    177 O24         0.7060   -6.8370   -4.7260 oh        1 MOL     -0.818493
    178 H84         0.9360   -6.6490   -5.6360 ho        1 MOL      0.399583
    179 H85         0.1930   -7.6380   -4.7670 ho        1 MOL      0.399583
    180 O25        -0.7470   -2.6490   -1.4190 oh        1 MOL     -0.818493
    181 H86        -0.4540   -1.7460   -1.3420 ho        1 MOL      0.399583
    182 H87        -1.0980   -2.8580   -0.5470 ho        1 MOL      0.399583
    183 O26         0.9500   -7.6520   -1.4180 oh        1 MOL     -0.818493
    184 H88         1.7390   -8.0860   -1.7270 ho        1 MOL      0.399583
    185 H89         0.4090   -8.3640   -1.0660 ho        1 MOL      0.399583
    186 O27         1.9550   -3.1650   -2.6040 oh        1 MOL     -0.818493
    187 H90         2.0820   -3.0370   -1.6660 ho        1 MOL      0.399583
    188 H91         2.7120   -2.7650   -3.0150 ho        1 MOL      0.399583
    189 O28        -0.3590   -3.7250   -4.5700 oh        1 MOL     -0.818493
    190 H92        -1.2210   -3.6150   -4.9710 ho        1 MOL      0.399583
    191 H93         0.0790   -2.8880   -4.7020 ho        1 MOL      0.399583
    192 O29         3.2260   -5.8320   -2.6720 oh        1 MOL     -0.818493
    193 H94         3.3910   -6.5230   -3.3160 ho        1 MOL      0.399583
    194 H95         3.7810   -6.0720   -1.9260 ho        1 MOL      0.399583
    195 O30        -1.3500   -5.5310   -0.1700 oh        1 MOL     -0.818493
    196 H96        -1.7360   -4.8450    0.3870 ho        1 MOL      0.399583
    197 H97        -2.0180   -6.2110   -0.2070 ho        1 MOL      0.399583
@<TRIPOS>BOND
     1    1    2 1   
     2    1    4 1   
     3    1    5 1   
     4    1    6 1   
     5    2    3 2   
     6    2    7 1   
     7    7    8 1   
     8    7   15 1   
     9    8    9 1   
    10    8   11 1   
    11    8   16 1   
    12    9   10 2   
    13    9   19 1   
    14   11   12 1   
    15   11   17 1   
    16   11   18 1   
    17   12   13 1   
    18   12   14 1   
    19   19   20 1   
    20   19   28 1   
    21   20   21 1   
    22   20   23 1   
    23   20   29 1   
    24   21   22 2   
    25   21   41 1   
    26   23   24 1   
    27   23   30 1   
    28   23   31 1   
    29   24   25 1   
    30   24   32 1   
    31   24   33 1   
    32   25   26 1   
    33   25   34 1   
    34   25   35 1   
    35   26   27 1   
    36   26   36 1   
    37   26   37 1   
    38   27   38 1   
    39   27   39 1   
    40   27   40 1   
    41   41   42 1   
    42   41   49 1   
    43   42   43 1   
    44   42   45 1   
    45   42   50 1   
    46   43   44 2   
    47   43   53 1   
    48   45   46 1   
    49   45   51 1   
    50   45   52 1   
    51   46   47 1   
    52   46   48 1   
    53   53   54 1   
    54   53   57 1   
    55   54   55 1   
    56   54   58 1   
    57   54   59 1   
    58   55   56 2   
    59   55   60 1   
    60   60   61 1   
    61   60   68 1   
    62   61   62 1   
    63   61   64 1   
    64   61   69 1   
    65   62   63 2   
    66   62   74 1   
    67   64   65 1   
    68   64   70 1   
    69   64   71 1   
    70   65   66 1   
    71   65   67 2   
    72   66   72 1   
    73   66   73 1   
    74   74   75 1   
    75   74   78 1   
    76   75   76 1   
    77   75   79 1   
    78   75   80 1   
    79   76   77 2   
    80   76   81 1   
    81   81   82 1   
    82   81   93 1   
    83   82   83 1   
    84   82   85 1   
    85   82   94 1   
    86   83   84 2   
    87   83  102 1   
    88   85   86 1   
    89   85   95 1   
    90   85   96 1   
    91   86   87 ar  
    92   86   88 ar  
    93   87   89 ar  
    94   87   97 1   
    95   88   90 ar  
    96   88   98 1   
    97   89   91 ar  
    98   89   99 1   
    99   90   91 ar  
   100   90  100 1   
   101   91   92 1   
   102   92  101 1   
   103  102  103 1   
   104  102  110 1   
   105  103  104 1   
   106  103  106 1   
   107  103  111 1   
   108  104  105 2   
   109  104  121 1   
   110  106  107 1   
   111  106  108 1   
   112  106  112 1   
   113  107  109 1   
   114  107  113 1   
   115  107  114 1   
   116  108  115 1   
   117  108  116 1   
   118  108  117 1   
   119  109  118 1   
   120  109  119 1   
   121  109  120 1   
   122  121  122 1   
   123  121  127 1   
   124  122  123 1   
   125  122  125 1   
   126  122  128 1   
   127  123  124 2   
   128  123  132 1   
   129  125  126 1   
   130  125  129 1   
   131  125  130 1   
   132  126  131 1   
   133  132  133 1   
   134  132  137 1   
   135  133  134 1   
   136  133  136 1   
   137  133  138 1   
   138  134  135 2   
   139  134  142 1   
   140  136  139 1   
   141  136  140 1   
   142  136  141 1   
   143  142  143 1   
   144  142  147 1   
   145  143  144 1   
   146  143  146 1   
   147  143  148 1   
   148  144  145 2   
   149  144  152 1   
   150  146  149 1   
   151  146  150 1   
   152  146  151 1   
   153  152  153 1   
   154  152  161 1   
   155  153  154 1   
   156  153  156 1   
   157  153  162 1   
   158  154  155 2   
   159  154  167 1   
   160  156  157 1   
   161  156  163 1   
   162  156  164 1   
   163  157  158 1   
   164  157  165 1   
   165  157  166 1   
   166  158  159 1   
   167  158  160 1   
   168  167  168 1   
   169  167  172 1   
   170  168  169 1   
   171  168  170 1   
   172  168  171 1   
   173  174  175 1   
   174  174  176 1   
   175  177  178 1   
   176  177  179 1   
   177  180  181 1   
   178  180  182 1   
   179  183  184 1   
   180  183  185 1   
   181  186  187 1   
   182  186  188 1   
   183  189  190 1   
   184  189  191 1   
   185  192  193 1   
   186  192  194 1   
   187  195  196 1   
   188  195  197 1   
@<TRIPOS>SUBSTRUCTURE
     1 MOL         1 TEMP              0 ****  ****    0 ROOT
