@<TRIPOS>MOLECULE
MOL
  175   173     1     0     0
SMALL
resp


@<TRIPOS>ATOM
      1 C1         -7.1800    7.8590    1.9030 c3        1 MOL     -0.372038
      2 C2         -7.9470    7.0990    0.8420 c         1 MOL      0.642313
      3 O1         -7.8840    7.3940   -0.3510 o         1 MOL     -0.575663
      4 H1         -7.7250    7.8170    2.8450 hc        1 MOL      0.089036
      5 H2         -6.1950    7.4090    2.0340 hc        1 MOL      0.089036
      6 H3         -7.0670    8.8990    1.5950 hc        1 MOL      0.089036
      7 N1         -8.6130    6.0260    1.2240 n         1 MOL     -0.518459
      8 C3         -9.4000    5.2100    0.3060 c3        1 MOL      0.165632
      9 C4         -8.5540    4.2730   -0.5870 c         1 MOL      0.548160
     10 O2         -8.9700    3.9680   -1.6790 o         1 MOL     -0.519623
     11 C5        -10.4250    4.2950    1.0100 c3        1 MOL     -0.308867
     12 C6        -11.6030    4.0040    0.0720 c         1 MOL      0.736466
     13 O3        -11.7300    2.8550   -0.4220 o         1 MOL     -0.726224
     14 O4        -12.4340    4.8720   -0.2070 o         1 MOL     -0.726224
     15 H4         -8.4550    5.8060    2.1990 hn        1 MOL      0.287950
     16 H5         -9.8700    5.8820   -0.4240 h1        1 MOL      0.079418
     17 H6        -10.8730    4.8830    1.8080 hc        1 MOL      0.035500
     18 H7        -10.0040    3.3860    1.4460 hc        1 MOL      0.035500
     19 N2         -7.3990    3.8710   -0.1000 n         1 MOL     -0.407889
     20 C7         -6.4700    2.9880   -0.8030 c3        1 MOL     -0.006541
     21 C8         -5.5130    2.2880    0.1650 c         1 MOL      0.620160
     22 O5         -4.9020    2.7700    1.1040 o         1 MOL     -0.564437
     23 C9         -5.6580    3.7720   -1.8810 c3        1 MOL     -0.096847
     24 H8         -7.2700    4.0660    0.8790 hn        1 MOL      0.224937
     25 H9         -7.0430    2.2720   -1.3810 h1        1 MOL      0.114753
     26 H10        -6.2840    4.3660   -2.5350 hc        1 MOL      0.048193
     27 H11        -4.9310    4.4990   -1.5130 hc        1 MOL      0.048193
     28 H12        -5.0770    3.1410   -2.5580 hc        1 MOL      0.048193
     29 N3         -5.2370    0.9840    0.0480 n         1 MOL     -0.399078
     30 C10        -5.8080   -0.0020   -0.8890 c3        1 MOL     -0.253229
     31 C11        -5.8130   -1.4110   -0.2530 c         1 MOL      0.689814
     32 O6         -5.0340   -1.6440    0.6450 o         1 MOL     -0.532089
     33 C12        -5.0100   -0.1510   -2.1770 c3        1 MOL     -0.039940
     34 C13        -3.5050   -0.3620   -2.0690 c         1 MOL      0.677909
     35 O7         -3.0660   -1.5210   -1.9480 o         1 MOL     -0.698419
     36 O8         -2.7530    0.6190   -2.0190 o         1 MOL     -0.698419
     37 H13        -4.5340    0.6400    0.6960 hn        1 MOL      0.266187
     38 H14        -6.8190    0.2990   -1.1750 h1        1 MOL      0.112864
     39 H15        -5.1730    0.6620   -2.8760 hc        1 MOL      0.019677
     40 H16        -5.3640   -0.9740   -2.8120 hc        1 MOL      0.019677
     41 N4         -6.5980   -2.3310   -0.8180 n         1 MOL     -0.528655
     42 C14        -6.8560   -3.6840   -0.2340 c3        1 MOL      0.056779
     43 C15        -6.6790   -4.8470   -1.1860 c         1 MOL      0.564297
     44 O9         -7.5990   -5.6330   -1.4260 o         1 MOL     -0.567573
     45 H17        -7.1780   -2.0760   -1.6040 hn        1 MOL      0.327196
     46 H18        -7.7710   -3.8500    0.3340 h1        1 MOL      0.048198
     47 H19        -6.0380   -3.8360    0.4740 h1        1 MOL      0.048198
     48 N5         -5.4940   -5.1190   -1.7250 n         1 MOL     -0.484387
     49 C16        -4.1990   -4.6640   -1.0640 c3        1 MOL      0.045119
     50 C17        -3.8960   -5.3380    0.3080 c         1 MOL      0.602844
     51 O10        -4.1110   -6.5670    0.4210 o         1 MOL     -0.590887
     52 C18        -3.0930   -5.0620   -2.1240 c3        1 MOL     -0.205879
     53 C19        -1.7080   -4.4920   -1.7270 c         1 MOL      0.550592
     54 N6         -0.8160   -4.5130   -2.6620 n         1 MOL     -0.640413
     55 O11        -1.4980   -3.8820   -0.7010 o         1 MOL     -0.495957
     56 H20        -5.3690   -5.8040   -2.4500 hn        1 MOL      0.313408
     57 H21        -4.2430   -3.5830   -0.9210 h1        1 MOL      0.008396
     58 H22        -3.3430   -4.6150   -3.0910 hc        1 MOL      0.071274
     59 H23        -3.0290   -6.1440   -2.1790 hc        1 MOL      0.071274
     60 H24        -1.0070   -4.8570   -3.5970 hn        1 MOL      0.319510
     61 H25         0.0310   -4.0300   -2.4060 hn        1 MOL      0.319510
     62 N7         -3.5960   -4.5290    1.2750 n         1 MOL     -0.176629
     63 C20        -3.3050   -4.8610    2.6830 c3        1 MOL     -0.358902
     64 C21        -1.8050   -4.9480    3.0250 c         1 MOL      0.687588
     65 O12        -1.5290   -5.5030    4.0610 o         1 MOL     -0.598963
     66 H26        -3.5850   -3.5960    0.8700 hn        1 MOL      0.220513
     67 H27        -3.5920   -5.9060    2.7820 h1        1 MOL      0.144239
     68 H28        -3.8100   -4.1440    3.3430 h1        1 MOL      0.144239
     69 N8         -0.8970   -4.5460    2.1450 n         1 MOL     -0.324482
     70 C22         0.5570   -4.6720    2.2620 c3        1 MOL     -0.102142
     71 C23         1.3120   -3.3550    1.8570 c         1 MOL      0.274032
     72 O13         0.8290   -2.5800    1.0230 o         1 MOL     -0.430422
     73 C24         1.1340   -5.8310    1.4050 c3        1 MOL      0.578970
     74 C25         0.9060   -7.1610    2.0940 c3        1 MOL     -0.387703
     75 O14         0.6790   -5.9340    0.0630 oh        1 MOL     -0.671658
     76 H29        -1.1440   -4.2710    1.2120 hn        1 MOL      0.178696
     77 H30         0.8840   -4.8150    3.2960 h1        1 MOL      0.050066
     78 H31         2.2150   -5.7360    1.3020 h1        1 MOL     -0.056765
     79 H32         1.2160   -5.4110   -0.5290 ho        1 MOL      0.404625
     80 H33         0.9100   -7.9920    1.3920 hc        1 MOL      0.083834
     81 H34         1.6540   -7.3480    2.8610 hc        1 MOL      0.083834
     82 H35        -0.0810   -7.1510    2.5700 hc        1 MOL      0.083834
     83 N9          2.4250   -3.0900    2.5000 n         1 MOL     -0.111498
     84 C26         3.2850   -1.9750    2.1440 c3        1 MOL     -0.122093
     85 C27         4.1770   -2.4470    0.9530 c         1 MOL      0.330568
     86 O15         5.1040   -3.1880    1.1700 o         1 MOL     -0.553156
     87 C28         4.0380   -1.4110    3.3280 c3        1 MOL      0.159793
     88 C29         5.0280   -0.3470    2.9580 c3        1 MOL      0.305599
     89 C30         3.0240   -1.0610    4.4820 c3        1 MOL     -0.500276
     90 C31         5.7990    0.2050    4.1530 c3        1 MOL     -0.268787
     91 H36         2.6880   -3.8400    3.1270 hn        1 MOL      0.220355
     92 H37         2.7350   -1.0990    1.8050 h1        1 MOL      0.060889
     93 H38         4.6290   -2.2480    3.7110 hc        1 MOL     -0.023337
     94 H39         4.5130    0.5090    2.5250 hc        1 MOL     -0.079299
     95 H40         5.7260   -0.6840    2.1860 hc        1 MOL     -0.079299
     96 H41         2.6830   -2.0060    4.9240 hc        1 MOL      0.126072
     97 H42         3.4750   -0.4540    5.2690 hc        1 MOL      0.126072
     98 H43         2.1200   -0.5610    4.1270 hc        1 MOL      0.126072
     99 H44         5.2050    0.8420    4.8060 hc        1 MOL      0.051745
    100 H45         6.1960   -0.6370    4.7370 hc        1 MOL      0.051745
    101 H46         6.7520    0.6840    3.9140 hc        1 MOL      0.051745
    102 N10         3.8990   -1.9580   -0.2160 n         1 MOL     -0.079642
    103 C32         4.5920   -2.3280   -1.4320 c3        1 MOL      0.212429
    104 C33         5.6250   -1.2880   -1.8250 c         1 MOL      0.569150
    105 O16         5.7780   -0.8330   -2.9600 o         1 MOL     -0.560713
    106 C34         3.4180   -2.5290   -2.4440 c3        1 MOL     -0.421472
    107 C35         2.2110   -3.3260   -1.9300 c         1 MOL      0.802183
    108 O17         2.2810   -4.5000   -1.5300 o         1 MOL     -0.688042
    109 O18         1.1180   -2.7040   -1.9310 o         1 MOL     -0.688042
    110 H47         3.2040   -1.2330   -0.3410 hn        1 MOL      0.175581
    111 H48         5.1630   -3.2490   -1.2850 h1        1 MOL      0.041940
    112 H49         3.7840   -2.9400   -3.3870 hc        1 MOL      0.076475
    113 H50         2.9480   -1.5770   -2.6960 hc        1 MOL      0.076475
    114 N11         6.3870   -0.7730   -0.8520 n         1 MOL     -0.742198
    115 C36         7.2580    0.3360   -1.0380 c3        1 MOL      0.827925
    116 C37         6.8440    1.7300   -0.4450 c         1 MOL      0.145789
    117 O19         6.4610    1.8430    0.7170 o         1 MOL     -0.531087
    118 C38         8.6780   -0.0830   -0.4800 c3        1 MOL     -0.202352
    119 C39         9.8120    0.8860   -0.7830 ca        1 MOL      0.054551
    120 C40        10.1160    1.9570    0.1170 ca        1 MOL     -0.151458
    121 C41        10.5630    0.7160   -1.9370 ca        1 MOL     -0.151458
    122 C42        11.1290    2.8760   -0.2250 ca        1 MOL     -0.128517
    123 C43        11.6050    1.6370   -2.2710 ca        1 MOL     -0.128517
    124 C44        11.9090    2.7340   -1.4490 ca        1 MOL     -0.120827
    125 H51         6.2940   -1.2200    0.0360 hn        1 MOL      0.266396
    126 H52         7.4530    0.4500   -2.1010 h1        1 MOL     -0.139646
    127 H53         8.9660   -1.0450   -0.9050 hc        1 MOL      0.069089
    128 H54         8.6390   -0.1920    0.6060 hc        1 MOL      0.069089
    129 H55         9.5230    2.0300    1.0180 ha        1 MOL      0.123875
    130 H56        10.4290   -0.1330   -2.5940 ha        1 MOL      0.123875
    131 H57        11.3140    3.7100    0.4390 ha        1 MOL      0.108253
    132 H58        12.2210    1.3490   -3.1010 ha        1 MOL      0.108253
    133 H59        12.7160    3.4060   -1.6900 ha        1 MOL      0.112671
    134 N12         6.8770    2.8890   -1.1730 n         1 MOL      0.035143
    135 C45         6.9290    4.2480   -0.5680 c3        1 MOL     -0.076140
    136 C46         5.5700    4.7800   -0.0230 c         1 MOL      0.682062
    137 O20         5.5480    5.9610    0.3420 o         1 MOL     -0.581648
    138 C47         7.4420    5.1780   -1.6830 c3        1 MOL     -0.231893
    139 C48         6.7840    4.4750   -2.9320 c3        1 MOL      0.022173
    140 C49         6.9810    2.9730   -2.6680 c3        1 MOL     -0.249464
    141 H60         7.6160    4.4180    0.2690 h1        1 MOL      0.082685
    142 H61         7.0350    6.1570   -1.4530 hc        1 MOL      0.096789
    143 H62         8.5200    5.0980   -1.8170 hc        1 MOL      0.096789
    144 H63         5.7200    4.6760   -3.0320 hc        1 MOL      0.027066
    145 H64         7.3420    4.8060   -3.8020 hc        1 MOL      0.027066
    146 H65         6.1230    2.4970   -3.1520 h1        1 MOL      0.118339
    147 H66         7.9720    2.7560   -3.0680 h1        1 MOL      0.118339
    148 N13         4.4620    4.0500    0.0580 n         1 MOL     -0.409008
    149 C50         3.1480    4.4730    0.4740 c3        1 MOL     -0.174033
    150 C51         3.0840    4.7050    1.9930 c         1 MOL      0.461217
    151 O21         2.0690    4.9380    2.6390 o         1 MOL     -0.488670
    152 C52         2.1660    3.3740    0.0210 c3        1 MOL     -0.098466
    153 C53         2.2680    1.9630    0.6770 c3        1 MOL     -0.010434
    154 C54         1.3270    0.9370    0.0390 c         1 MOL      0.697894
    155 O22         1.7780    0.0720   -0.6980 o         1 MOL     -0.768826
    156 O23         0.1130    0.8540    0.4200 o         1 MOL     -0.768826
    157 H67         4.4660    3.0870   -0.2530 hn        1 MOL      0.265129
    158 H68         2.9210    5.3820   -0.0870 h1        1 MOL      0.157012
    159 H69         2.2730    3.2350   -1.0550 hc        1 MOL      0.065588
    160 H70         1.1350    3.7360    0.1170 hc        1 MOL      0.065588
    161 H71         1.9990    2.1140    1.7190 hc        1 MOL      0.055507
    162 H72         3.3040    1.6440    0.5300 hc        1 MOL      0.055507
    163 N14         4.2460    4.5690    2.7230 n         1 MOL     -0.223096
    164 C55         4.3940    5.0720    4.0750 c3        1 MOL     -0.073021
    165 H73         4.9350    6.0190    4.0520 h1        1 MOL      0.057643
    166 H74         3.4100    5.2270    4.5160 h1        1 MOL      0.057643
    167 H75         4.9520    4.3510    4.6730 h1        1 MOL      0.057643
    168 H76         5.1010    4.4480    2.1930 hn        1 MOL      0.192374
    169 Ca1        -0.7100   -1.2070   -0.9320 Ca        1 MOL      1.690914
    170 O24        -0.2450   -0.8840   -3.6110 oh        1 MOL     -0.831071
    171 H77         0.1960   -0.0420   -3.7510 ho        1 MOL      0.405589
    172 H78         0.3550   -1.5250   -4.0070 ho        1 MOL      0.405589
    173 O25        -2.3570   -1.3770    1.1170 oh        1 MOL     -0.831071
    174 H79        -3.3140   -1.3060    1.0660 ho        1 MOL      0.405589
    175 H80        -2.1000   -0.7150    1.7570 ho        1 MOL      0.405589
@<TRIPOS>BOND
     1    1    2 1   
     2    1    4 1   
     3    1    5 1   
     4    1    6 1   
     5    2    3 2   
     6    2    7 1   
     7    7    8 1   
     8    7   15 1   
     9    8    9 1   
    10    8   11 1   
    11    8   16 1   
    12    9   10 2   
    13    9   19 1   
    14   11   12 1   
    15   11   17 1   
    16   11   18 1   
    17   12   13 1   
    18   12   14 1   
    19   19   20 1   
    20   19   24 1   
    21   20   21 1   
    22   20   23 1   
    23   20   25 1   
    24   21   22 2   
    25   21   29 1   
    26   23   26 1   
    27   23   27 1   
    28   23   28 1   
    29   29   30 1   
    30   29   37 1   
    31   30   31 1   
    32   30   33 1   
    33   30   38 1   
    34   31   32 2   
    35   31   41 1   
    36   33   34 1   
    37   33   39 1   
    38   33   40 1   
    39   34   35 1   
    40   34   36 1   
    41   41   42 1   
    42   41   45 1   
    43   42   43 1   
    44   42   46 1   
    45   42   47 1   
    46   43   44 2   
    47   43   48 1   
    48   48   49 1   
    49   48   56 1   
    50   49   50 1   
    51   49   52 1   
    52   49   57 1   
    53   50   51 2   
    54   50   62 1   
    55   52   53 1   
    56   52   58 1   
    57   52   59 1   
    58   53   54 1   
    59   53   55 2   
    60   54   60 1   
    61   54   61 1   
    62   62   63 1   
    63   62   66 1   
    64   63   64 1   
    65   63   67 1   
    66   63   68 1   
    67   64   65 2   
    68   64   69 1   
    69   69   70 1   
    70   69   76 1   
    71   70   71 1   
    72   70   73 1   
    73   70   77 1   
    74   71   72 2   
    75   71   83 1   
    76   73   74 1   
    77   73   75 1   
    78   73   78 1   
    79   74   80 1   
    80   74   81 1   
    81   74   82 1   
    82   75   79 1   
    83   83   84 1   
    84   83   91 1   
    85   84   85 1   
    86   84   87 1   
    87   84   92 1   
    88   85   86 2   
    89   85  102 1   
    90   87   88 1   
    91   87   89 1   
    92   87   93 1   
    93   88   90 1   
    94   88   94 1   
    95   88   95 1   
    96   89   96 1   
    97   89   97 1   
    98   89   98 1   
    99   90   99 1   
   100   90  100 1   
   101   90  101 1   
   102  102  103 1   
   103  102  110 1   
   104  103  104 1   
   105  103  106 1   
   106  103  111 1   
   107  104  105 2   
   108  104  114 1   
   109  106  107 1   
   110  106  112 1   
   111  106  113 1   
   112  107  108 1   
   113  107  109 1   
   114  114  115 1   
   115  114  125 1   
   116  115  116 1   
   117  115  118 1   
   118  115  126 1   
   119  116  117 2   
   120  116  134 1   
   121  118  119 1   
   122  118  127 1   
   123  118  128 1   
   124  119  120 ar  
   125  119  121 ar  
   126  120  122 ar  
   127  120  129 1   
   128  121  123 ar  
   129  121  130 1   
   130  122  124 ar  
   131  122  131 1   
   132  123  124 ar  
   133  123  132 1   
   134  124  133 1   
   135  134  135 1   
   136  134  140 1   
   137  135  136 1   
   138  135  138 1   
   139  135  141 1   
   140  136  137 2   
   141  136  148 1   
   142  138  139 1   
   143  138  142 1   
   144  138  143 1   
   145  139  140 1   
   146  139  144 1   
   147  139  145 1   
   148  140  146 1   
   149  140  147 1   
   150  148  149 1   
   151  148  157 1   
   152  149  150 1   
   153  149  152 1   
   154  149  158 1   
   155  150  151 2   
   156  150  163 1   
   157  152  153 1   
   158  152  159 1   
   159  152  160 1   
   160  153  154 1   
   161  153  161 1   
   162  153  162 1   
   163  154  155 1   
   164  154  156 1   
   165  163  164 1   
   166  163  168 1   
   167  164  165 1   
   168  164  166 1   
   169  164  167 1   
   170  170  171 1   
   171  170  172 1   
   172  173  174 1   
   173  173  175 1   
@<TRIPOS>SUBSTRUCTURE
     1 MOL         1 TEMP              0 ****  ****    0 ROOT
