@<TRIPOS>MOLECULE
MOL
  191   184     1     0     0
SMALL
resp


@<TRIPOS>ATOM
      1 C1         -5.7660   -0.3840    4.1160 c3        1 MOL     -0.440925
      2 C2         -6.0980   -1.0280    2.6510 c         1 MOL      0.485759
      3 O1         -5.4270   -0.6110    1.6550 o         1 MOL     -0.434320
      4 H1         -6.6990   -0.1350    4.6220 hc        1 MOL      0.121145
      5 H2         -5.2110   -1.1080    4.7140 hc        1 MOL      0.121145
      6 H3         -5.1680    0.5190    3.9900 hc        1 MOL      0.121145
      7 N1         -7.1390   -1.8530    2.5030 n         1 MOL     -0.497361
      8 C3         -7.7690   -2.4320    1.2620 c3        1 MOL      0.276923
      9 C4         -8.0110   -1.3470    0.1610 c         1 MOL      0.393825
     10 O2         -7.8280   -1.6430   -0.9920 o         1 MOL     -0.419540
     11 C5         -7.0120   -3.6690    0.7790 c3        1 MOL     -0.250113
     12 C6         -7.8500   -4.5100   -0.1650 c         1 MOL      0.656825
     13 O3         -7.3490   -5.4740   -0.8710 o         1 MOL     -0.615087
     14 O4         -9.0610   -4.2470   -0.2890 o         1 MOL     -0.615087
     15 H4         -7.6380   -1.9780    3.3720 hn        1 MOL      0.295470
     16 H5         -8.7420   -2.7580    1.6260 h1        1 MOL      0.002825
     17 H6         -6.8010   -4.2930    1.6490 hc        1 MOL      0.079525
     18 H7         -6.1030   -3.3600    0.2560 hc        1 MOL      0.079525
     19 N2         -8.2720   -0.1000    0.5310 n         1 MOL     -0.423179
     20 C7         -8.4120    1.0180   -0.3850 c3        1 MOL      0.070588
     21 C8         -7.1080    1.6260   -0.8780 c         1 MOL      0.451661
     22 O5         -7.1550    2.5610   -1.6830 o         1 MOL     -0.587776
     23 C9         -9.4890    2.0310    0.0080 c3        1 MOL     -0.064322
     24 C10        -8.9690    2.8520    1.0990 c3        1 MOL      0.071686
     25 C11       -10.0720    3.6310    1.7530 c3        1 MOL     -0.110254
     26 C12        -9.3820    4.4380    2.8710 c3        1 MOL      0.048925
     27 N3        -10.4410    5.1920    3.6370 n4        1 MOL     -0.129156
     28 H8         -8.4120    0.0060    1.5230 hn        1 MOL      0.221642
     29 H9         -8.7890    0.6730   -1.3420 h1        1 MOL      0.126234
     30 H10       -10.3830    1.4580    0.2730 hc        1 MOL      0.043916
     31 H11        -9.8840    2.7030   -0.7670 hc        1 MOL      0.043916
     32 H12        -8.1800    3.5330    0.7710 hc        1 MOL      0.024505
     33 H13        -8.5340    2.2740    1.9100 hc        1 MOL      0.024505
     34 H14       -10.8420    2.9660    2.1420 hc        1 MOL      0.043518
     35 H15       -10.5200    4.3920    1.1090 hc        1 MOL      0.043518
     36 H16        -8.6000    5.0590    2.4140 hx        1 MOL      0.065807
     37 H17        -8.9350    3.7430    3.5780 hx        1 MOL      0.065807
     38 H18       -11.1380    5.6330    3.0530 hn        1 MOL      0.196926
     39 H19       -11.0630    4.5430    4.0800 hn        1 MOL      0.196926
     40 H20       -10.0910    5.9290    4.2400 hn        1 MOL      0.196926
     41 N4         -5.9110    1.1010   -0.5340 n         1 MOL     -0.318314
     42 C13        -4.6960    1.5620   -1.1120 c3        1 MOL      0.106842
     43 C14        -4.3770    0.8400   -2.3750 c         1 MOL      0.660232
     44 O6         -4.5640   -0.3200   -2.5170 o         1 MOL     -0.480903
     45 C15        -3.5300    1.3900   -0.1390 c3        1 MOL     -0.173049
     46 C16        -2.2560    2.0760   -0.5880 c         1 MOL      0.436474
     47 O7         -1.6370    1.7490   -1.6470 o         1 MOL     -0.555682
     48 O8         -1.7930    3.0410    0.0610 o         1 MOL     -0.555682
     49 H21        -5.9150    0.3820    0.1770 hn        1 MOL      0.161275
     50 H22        -4.6580    2.6390   -1.2910 h1        1 MOL      0.040564
     51 H23        -3.2260    0.3500    0.0120 hc        1 MOL      0.045475
     52 H24        -3.9110    1.8050    0.7970 hc        1 MOL      0.045475
     53 N5         -3.8800    1.5770   -3.3700 n         1 MOL     -0.498554
     54 C17        -3.5240    1.1560   -4.6630 c3        1 MOL     -0.018382
     55 C18        -2.4080    0.1400   -4.7660 c         1 MOL      0.417553
     56 O9         -2.1210   -0.3610   -5.8760 o         1 MOL     -0.568876
     57 H25        -3.5840    2.5030   -3.0840 hn        1 MOL      0.247753
     58 H26        -3.2140    2.0620   -5.1760 h1        1 MOL      0.078367
     59 H27        -4.4190    0.8200   -5.1870 h1        1 MOL      0.078367
     60 N6         -1.6140   -0.0870   -3.7570 n         1 MOL     -0.118055
     61 C19        -0.5980   -1.1890   -3.6860 c3        1 MOL     -0.190153
     62 C20        -1.2530   -2.5340   -3.2660 c         1 MOL      0.595897
     63 O10        -0.5550   -3.5520   -3.2000 o         1 MOL     -0.579452
     64 C21         0.4330   -0.6380   -2.7140 c3        1 MOL     -0.461871
     65 C22         1.2680    0.4520   -3.2360 c         1 MOL      0.898350
     66 N7          1.9910    0.3830   -4.2940 n         1 MOL     -0.771221
     67 O11         1.3450    1.5160   -2.6640 o         1 MOL     -0.745831
     68 H28        -1.5940    0.5690   -2.9900 hn        1 MOL      0.222533
     69 H29        -0.0420   -1.3500   -4.6050 h1        1 MOL      0.107575
     70 H30         1.1410   -1.4460   -2.5460 hc        1 MOL      0.203121
     71 H31        -0.0600   -0.3340   -1.7910 hc        1 MOL      0.203121
     72 H32         2.1710   -0.5240   -4.6990 hn        1 MOL      0.364027
     73 H33         2.6020    1.1850   -4.3960 hn        1 MOL      0.364027
     74 N8         -2.5200   -2.5020   -2.8700 n         1 MOL     -0.231978
     75 C23        -3.1550   -3.5530   -2.0910 c3        1 MOL     -0.318915
     76 C24        -2.7380   -3.5930   -0.6050 c         1 MOL      0.574209
     77 O12        -3.0360   -4.5940    0.0540 o         1 MOL     -0.523398
     78 H34        -3.0320   -1.6260   -2.9210 hn        1 MOL      0.167286
     79 H35        -2.8530   -4.4890   -2.5690 h1        1 MOL      0.178572
     80 H36        -4.2400   -3.4890   -2.2010 h1        1 MOL      0.178572
     81 N9         -2.0150   -2.5460   -0.1590 n         1 MOL     -0.238907
     82 C25        -1.3180   -2.4820    1.1590 c3        1 MOL     -0.312215
     83 C26         0.0030   -1.5970    1.1080 c         1 MOL      0.749555
     84 O13        -0.0120   -0.4630    0.5560 o         1 MOL     -0.588891
     85 C27        -2.3240   -1.9440    2.2370 c3        1 MOL     -0.026396
     86 C28        -1.7140   -1.3230    3.4860 ca        1 MOL      0.036741
     87 C29        -1.4440   -2.1530    4.5410 ca        1 MOL     -0.120519
     88 C30        -1.2460    0.0080    3.4530 ca        1 MOL     -0.120519
     89 C31        -0.6260   -1.6370    5.5540 ca        1 MOL     -0.301475
     90 C32        -0.4260    0.5110    4.4270 ca        1 MOL     -0.301475
     91 C33        -0.1400   -0.2950    5.5740 ca        1 MOL      0.368065
     92 O14         0.5380    0.2790    6.6280 oh        1 MOL     -0.524399
     93 H37        -1.8530   -1.7610   -0.7760 hn        1 MOL      0.170309
     94 H38        -0.9620   -3.4430    1.5250 h1        1 MOL      0.143276
     95 H39        -3.0530   -2.6960    2.5530 hc        1 MOL      0.085598
     96 H40        -2.9210   -1.1360    1.8210 hc        1 MOL      0.085598
     97 H41        -1.6460   -3.2090    4.5570 ha        1 MOL      0.128464
     98 H42        -1.3060    0.6080    2.5550 ha        1 MOL      0.128464
     99 H43        -0.2930   -2.1830    6.4240 ha        1 MOL      0.143398
    100 H44        -0.0660    1.5300    4.4390 ha        1 MOL      0.143398
    101 H45         0.6530    1.2180    6.4820 ho        1 MOL      0.390495
    102 N10         1.1040   -2.1720    1.5530 n         1 MOL     -0.485572
    103 C34         2.4820   -1.6830    1.6320 c3        1 MOL     -0.060933
    104 C35         3.1080   -1.8580    0.2220 c         1 MOL      0.524022
    105 O15         3.4460   -0.9620   -0.4870 o         1 MOL     -0.489272
    106 C36         3.2730   -2.2220    2.7850 c3        1 MOL      0.034424
    107 C37         2.5020   -2.0010    4.0900 c3        1 MOL      0.343092
    108 C38         4.6420   -1.5040    2.7020 c3        1 MOL     -0.247140
    109 C39         3.3320   -2.5080    5.2950 c3        1 MOL     -0.503655
    110 H46         0.9970   -3.0720    1.9970 hn        1 MOL      0.246847
    111 H47         2.3640   -0.6200    1.8400 h1        1 MOL      0.040510
    112 H48         3.5260   -3.2720    2.7160 hc        1 MOL     -0.003893
    113 H49         1.5890   -2.5990    4.0960 hc        1 MOL     -0.023216
    114 H50         2.1670   -0.9720    4.1950 hc        1 MOL     -0.023216
    115 H51         5.3150   -1.9660    1.9710 hc        1 MOL      0.069220
    116 H52         4.5390   -0.4220    2.5750 hc        1 MOL      0.069220
    117 H53         5.1510   -1.5800    3.6640 hc        1 MOL      0.069220
    118 H54         2.6130   -2.7640    6.0760 hc        1 MOL      0.119524
    119 H55         4.0280   -3.3040    5.0240 hc        1 MOL      0.119524
    120 H56         3.8740   -1.6360    5.6610 hc        1 MOL      0.119524
    121 N11         3.1880   -3.1630   -0.1400 n         1 MOL     -0.489093
    122 C40         3.5650   -3.6770   -1.5030 c3        1 MOL      0.047521
    123 C41         5.0600   -3.6670   -1.5620 c         1 MOL      0.457687
    124 O16         5.5220   -3.4780   -2.7010 o         1 MOL     -0.539391
    125 C42         3.0350   -5.1410   -1.7310 c3        1 MOL      0.031207
    126 O17         3.6270   -6.0900   -0.7800 oh        1 MOL     -0.619411
    127 H57         2.8470   -3.8750    0.4840 hn        1 MOL      0.336734
    128 H58         3.0790   -3.0510   -2.2620 h1        1 MOL      0.046875
    129 H59         3.2430   -5.4500   -2.7540 h1        1 MOL      0.108580
    130 H60         1.9560   -5.1600   -1.5460 h1        1 MOL      0.108580
    131 H61         4.1180   -6.7190   -1.3220 ho        1 MOL      0.411534
    132 N12         5.8210   -3.9520   -0.5150 n         1 MOL     -0.265586
    133 C43         7.2720   -3.9400   -0.2650 c3        1 MOL      0.122905
    134 C44         7.9650   -2.6250   -0.6530 c         1 MOL      0.432941
    135 O18         9.1710   -2.6770   -0.7750 o         1 MOL     -0.515458
    136 C45         7.9550   -5.1370   -1.1120 c3        1 MOL     -0.507360
    137 H62         5.3390   -4.2850    0.3110 hn        1 MOL      0.222797
    138 H63         7.4240   -4.0940    0.8090 h1        1 MOL      0.078806
    139 H64         9.0420   -5.1640   -1.0380 hc        1 MOL      0.156467
    140 H65         7.4490   -6.0010   -0.6790 hc        1 MOL      0.156467
    141 H66         7.7420   -5.0070   -2.1720 hc        1 MOL      0.156467
    142 N13         7.2680   -1.4710   -0.9150 n         1 MOL     -0.490055
    143 C46         7.9010   -0.1680   -1.3090 c3        1 MOL      0.547924
    144 C47         7.9290    0.7500   -0.1040 c         1 MOL      0.235184
    145 O19         7.1840    0.5070    0.8230 o         1 MOL     -0.442768
    146 C48         7.0590    0.3680   -2.4510 c3        1 MOL     -0.188970
    147 H67         6.2950   -1.6540   -0.7160 hn        1 MOL      0.252544
    148 H68         8.9250   -0.2930   -1.6630 h1        1 MOL     -0.051699
    149 H69         7.1740   -0.2640   -3.3360 hc        1 MOL      0.034960
    150 H70         6.0530    0.4730   -2.0340 hc        1 MOL      0.034960
    151 H71         7.3620    1.3700   -2.7630 hc        1 MOL      0.034960
    152 N14         8.7050    1.8460   -0.2010 n         1 MOL     -0.256278
    153 C49         8.9020    2.9010    0.8590 c3        1 MOL      0.051306
    154 C50         9.4240    2.4070    2.2620 c         1 MOL      0.304942
    155 O20         9.1830    3.0880    3.3040 o         1 MOL     -0.480841
    156 C51         7.5740    3.7330    0.9200 c3        1 MOL      0.098826
    157 C52         7.3840    4.6910   -0.2990 c3        1 MOL     -0.307672
    158 C53         6.0410    5.4700   -0.1190 c         1 MOL      0.637019
    159 O21         5.0390    5.2880   -0.8910 o         1 MOL     -0.668942
    160 O22         5.9550    6.4050    0.7000 o         1 MOL     -0.668942
    161 H72         9.3590    1.8700   -0.9760 hn        1 MOL      0.214227
    162 H73         9.7110    3.5320    0.4930 h1        1 MOL      0.050710
    163 H74         7.5750    4.2580    1.8680 hc        1 MOL      0.026405
    164 H75         6.7440    3.0440    1.0490 hc        1 MOL      0.026405
    165 H76         7.3930    4.1360   -1.2390 hc        1 MOL      0.055084
    166 H77         8.2340    5.3520   -0.4330 hc        1 MOL      0.055084
    167 N15        10.0380    1.2490    2.3460 n         1 MOL     -0.173668
    168 C54        10.2110    0.5520    3.5970 c3        1 MOL     -0.096848
    169 H78         9.5730    1.0050    4.3560 h1        1 MOL      0.072945
    170 H79         9.9390   -0.4960    3.4710 h1        1 MOL      0.072945
    171 H80        11.2530    0.6220    3.9110 h1        1 MOL      0.072945
    172 H81        10.2660    0.8000    1.4750 hn        1 MOL      0.175787
    173 Ca1         0.4010    3.5600   -1.4000 Ca        1 MOL      1.805958
    174 O23        -0.8730    3.4520   -3.7590 oh        1 MOL     -0.885163
    175 H82        -0.5980    3.3270   -4.6610 ho        1 MOL      0.427594
    176 H83        -1.5490    4.1260   -3.8020 ho        1 MOL      0.427594
    177 O24         3.2080    3.3180   -0.9080 oh        1 MOL     -0.885163
    178 H84         3.6680    2.5820   -0.5200 ho        1 MOL      0.427594
    179 H85         3.8090    4.0600   -0.7910 ho        1 MOL      0.427594
    180 O25         2.1120    5.1980   -2.5200 oh        1 MOL     -0.885163
    181 H86         2.8490    5.7130   -2.1900 ho        1 MOL      0.427594
    182 H87         2.0460    5.4350   -3.4420 ho        1 MOL      0.427594
    183 O26         0.8100    2.1600    0.8220 oh        1 MOL     -0.885163
    184 H88         1.4160    2.4110    1.5240 ho        1 MOL      0.427594
    185 H89         0.4920    1.3010    1.0760 ho        1 MOL      0.427594
    186 O27         0.9960    5.1310    0.6610 oh        1 MOL     -0.885163
    187 H90         1.8880    5.4560    0.5460 ho        1 MOL      0.427594
    188 H91         0.6000    5.7240    1.3010 ho        1 MOL      0.427594
    189 O28        -1.4060    5.5990   -1.5220 oh        1 MOL     -0.885163
    190 H92        -1.2420    6.5380   -1.3910 ho        1 MOL      0.427594
    191 H93        -2.1000    5.5630   -2.1760 ho        1 MOL      0.427594
@<TRIPOS>BOND
     1    1    2 1   
     2    1    4 1   
     3    1    5 1   
     4    1    6 1   
     5    2    3 2   
     6    2    7 1   
     7    7    8 1   
     8    7   15 1   
     9    8    9 1   
    10    8   11 1   
    11    8   16 1   
    12    9   10 2   
    13    9   19 1   
    14   11   12 1   
    15   11   17 1   
    16   11   18 1   
    17   12   13 1   
    18   12   14 1   
    19   19   20 1   
    20   19   28 1   
    21   20   21 1   
    22   20   23 1   
    23   20   29 1   
    24   21   22 2   
    25   21   41 1   
    26   23   24 1   
    27   23   30 1   
    28   23   31 1   
    29   24   25 1   
    30   24   32 1   
    31   24   33 1   
    32   25   26 1   
    33   25   34 1   
    34   25   35 1   
    35   26   27 1   
    36   26   36 1   
    37   26   37 1   
    38   27   38 1   
    39   27   39 1   
    40   27   40 1   
    41   41   42 1   
    42   41   49 1   
    43   42   43 1   
    44   42   45 1   
    45   42   50 1   
    46   43   44 2   
    47   43   53 1   
    48   45   46 1   
    49   45   51 1   
    50   45   52 1   
    51   46   47 1   
    52   46   48 1   
    53   53   54 1   
    54   53   57 1   
    55   54   55 1   
    56   54   58 1   
    57   54   59 1   
    58   55   56 2   
    59   55   60 1   
    60   60   61 1   
    61   60   68 1   
    62   61   62 1   
    63   61   64 1   
    64   61   69 1   
    65   62   63 2   
    66   62   74 1   
    67   64   65 1   
    68   64   70 1   
    69   64   71 1   
    70   65   66 1   
    71   65   67 2   
    72   66   72 1   
    73   66   73 1   
    74   74   75 1   
    75   74   78 1   
    76   75   76 1   
    77   75   79 1   
    78   75   80 1   
    79   76   77 2   
    80   76   81 1   
    81   81   82 1   
    82   81   93 1   
    83   82   83 1   
    84   82   85 1   
    85   82   94 1   
    86   83   84 2   
    87   83  102 1   
    88   85   86 1   
    89   85   95 1   
    90   85   96 1   
    91   86   87 ar  
    92   86   88 ar  
    93   87   89 ar  
    94   87   97 1   
    95   88   90 ar  
    96   88   98 1   
    97   89   91 ar  
    98   89   99 1   
    99   90   91 ar  
   100   90  100 1   
   101   91   92 1   
   102   92  101 1   
   103  102  103 1   
   104  102  110 1   
   105  103  104 1   
   106  103  106 1   
   107  103  111 1   
   108  104  105 2   
   109  104  121 1   
   110  106  107 1   
   111  106  108 1   
   112  106  112 1   
   113  107  109 1   
   114  107  113 1   
   115  107  114 1   
   116  108  115 1   
   117  108  116 1   
   118  108  117 1   
   119  109  118 1   
   120  109  119 1   
   121  109  120 1   
   122  121  122 1   
   123  121  127 1   
   124  122  123 1   
   125  122  125 1   
   126  122  128 1   
   127  123  124 2   
   128  123  132 1   
   129  125  126 1   
   130  125  129 1   
   131  125  130 1   
   132  126  131 1   
   133  132  133 1   
   134  132  137 1   
   135  133  134 1   
   136  133  136 1   
   137  133  138 1   
   138  134  135 2   
   139  134  142 1   
   140  136  139 1   
   141  136  140 1   
   142  136  141 1   
   143  142  143 1   
   144  142  147 1   
   145  143  144 1   
   146  143  146 1   
   147  143  148 1   
   148  144  145 2   
   149  144  152 1   
   150  146  149 1   
   151  146  150 1   
   152  146  151 1   
   153  152  153 1   
   154  152  161 1   
   155  153  154 1   
   156  153  156 1   
   157  153  162 1   
   158  154  155 2   
   159  154  167 1   
   160  156  157 1   
   161  156  163 1   
   162  156  164 1   
   163  157  158 1   
   164  157  165 1   
   165  157  166 1   
   166  158  159 1   
   167  158  160 1   
   168  167  168 1   
   169  167  172 1   
   170  168  169 1   
   171  168  170 1   
   172  168  171 1   
   173  174  175 1   
   174  174  176 1   
   175  177  178 1   
   176  177  179 1   
   177  180  181 1   
   178  180  182 1   
   179  183  184 1   
   180  183  185 1   
   181  186  187 1   
   182  186  188 1   
   183  189  190 1   
   184  189  191 1   
@<TRIPOS>SUBSTRUCTURE
     1 MOL         1 TEMP              0 ****  ****    0 ROOT
