@<TRIPOS>MOLECULE
MOL
  175   173     1     0     0
SMALL
resp


@<TRIPOS>ATOM
      1 C1         -6.6190    7.9590    2.1810 c3        1 MOL     -0.309232
      2 C2         -7.1910    7.1340    0.9840 c         1 MOL      0.718597
      3 O1         -6.9840    7.5720   -0.1560 o         1 MOL     -0.574707
      4 H1         -7.4330    8.2410    2.8490 hc        1 MOL      0.071696
      5 H2         -5.8940    7.3540    2.7260 hc        1 MOL      0.071696
      6 H3         -6.1320    8.8580    1.8040 hc        1 MOL      0.071696
      7 N1         -7.8820    5.9540    1.1310 n         1 MOL     -0.732574
      8 C3         -8.5920    5.2480   -0.0070 c3        1 MOL      0.500859
      9 C4         -7.5950    4.4400   -0.8570 c         1 MOL      0.485004
     10 O2         -7.7020    4.2590   -2.0690 o         1 MOL     -0.517695
     11 C5         -9.6890    4.4200    0.6040 c3        1 MOL     -0.355449
     12 C6        -10.6160    3.9430   -0.5210 c         1 MOL      0.734611
     13 O3        -11.2160    2.8290   -0.4050 o         1 MOL     -0.723528
     14 O4        -10.8230    4.6290   -1.5540 o         1 MOL     -0.723528
     15 H4         -7.9290    5.5390    2.0560 hn        1 MOL      0.316800
     16 H5         -9.0790    5.9610   -0.6620 h1        1 MOL     -0.017296
     17 H6        -10.2270    4.9890    1.3620 hc        1 MOL      0.030100
     18 H7         -9.2050    3.5680    1.0840 hc        1 MOL      0.030100
     19 N2         -6.5250    4.0430   -0.1430 n         1 MOL     -0.517262
     20 C7         -5.3140    3.5270   -0.7130 c3        1 MOL      0.267260
     21 C8         -4.5150    2.6330    0.1710 c         1 MOL      0.628664
     22 O5         -3.8960    3.0790    1.0770 o         1 MOL     -0.563233
     23 C9         -4.4740    4.7530   -1.2000 c3        1 MOL     -0.452192
     24 H8         -6.5750    4.1990    0.8600 hn        1 MOL      0.259201
     25 H9         -5.5090    2.9320   -1.6050 h1        1 MOL      0.043604
     26 H10        -4.1810    5.3920   -0.3700 hc        1 MOL      0.121534
     27 H11        -3.5890    4.2920   -1.6340 hc        1 MOL      0.121534
     28 H12        -5.0740    5.4140   -1.8340 hc        1 MOL      0.121534
     29 N3         -4.6170    1.2910    0.0550 n         1 MOL     -0.480121
     30 C10        -5.3270    0.4640   -0.8450 c3        1 MOL     -0.111098
     31 C11        -5.6200   -0.9850   -0.3450 c         1 MOL      0.574662
     32 O6         -4.9610   -1.4350    0.6060 o         1 MOL     -0.489806
     33 C12        -4.4850    0.3510   -2.0950 c3        1 MOL     -0.165161
     34 C13        -3.0780   -0.1870   -1.9140 c         1 MOL      0.687133
     35 O7         -2.1320    0.5400   -1.5590 o         1 MOL     -0.744966
     36 O8         -2.8630   -1.3830   -1.9530 o         1 MOL     -0.744966
     37 H13        -4.0300    0.7750    0.6840 hn        1 MOL      0.280894
     38 H14        -6.2030    1.0630   -1.0950 h1        1 MOL      0.093549
     39 H15        -4.3480    1.3460   -2.5050 hc        1 MOL      0.055665
     40 H16        -4.9890   -0.2800   -2.8160 hc        1 MOL      0.055665
     41 N4         -6.5390   -1.8720   -0.8690 n         1 MOL     -0.451095
     42 C14        -7.0600   -3.0950   -0.2730 c3        1 MOL      0.043758
     43 C15        -7.0030   -4.2770   -1.1820 c         1 MOL      0.551031
     44 O9         -8.0010   -4.6970   -1.6870 o         1 MOL     -0.558773
     45 H17        -7.0010   -1.6210   -1.7410 hn        1 MOL      0.310962
     46 H18        -8.1090   -2.8690   -0.0890 h1        1 MOL      0.066282
     47 H19        -6.6600   -3.3590    0.7020 h1        1 MOL      0.066282
     48 N5         -5.8470   -4.8520   -1.5240 n         1 MOL     -0.546824
     49 C16        -4.5490   -4.3580   -1.0900 c3        1 MOL      0.161159
     50 C17        -4.4120   -4.7680    0.4070 c         1 MOL      0.468065
     51 O10        -4.7760   -5.8670    0.8610 o         1 MOL     -0.575818
     52 C18        -3.4330   -4.9790   -1.9440 c3        1 MOL     -0.160980
     53 C19        -2.1430   -4.3120   -1.8340 c         1 MOL      0.679733
     54 N6         -1.1950   -4.4470   -2.7030 n         1 MOL     -0.758654
     55 O11        -1.8490   -3.6640   -0.8690 o         1 MOL     -0.542731
     56 H20        -5.8050   -5.6920   -2.0840 hn        1 MOL      0.318969
     57 H21        -4.4800   -3.2810   -1.2220 h1        1 MOL      0.073305
     58 H22        -3.6950   -4.8740   -2.9960 hc        1 MOL      0.054235
     59 H23        -3.3810   -6.0330   -1.6850 hc        1 MOL      0.054235
     60 H24        -1.2190   -5.2290   -3.3340 hn        1 MOL      0.321934
     61 H25        -0.3090   -4.0090   -2.4870 hn        1 MOL      0.321934
     62 N7         -3.7930   -3.8980    1.1900 n         1 MOL     -0.016500
     63 C20        -3.3960   -4.1570    2.6120 c3        1 MOL     -0.349195
     64 C21        -1.9760   -4.7540    2.8000 c         1 MOL      0.587235
     65 O12        -1.6340   -5.2450    3.8680 o         1 MOL     -0.586258
     66 H26        -3.4830   -3.0210    0.8040 hn        1 MOL      0.008139
     67 H27        -4.1700   -4.7230    3.1260 h1        1 MOL      0.142703
     68 H28        -3.2730   -3.1520    3.0100 h1        1 MOL      0.142703
     69 N8         -1.1190   -4.8020    1.7760 n         1 MOL     -0.125896
     70 C22         0.3160   -5.1670    1.7930 c3        1 MOL     -0.192635
     71 C23         1.1820   -3.9320    1.6740 c         1 MOL      0.535450
     72 O13         0.7960   -3.0070    0.9490 o         1 MOL     -0.648142
     73 C24         0.6520   -6.2850    0.7440 c3        1 MOL      0.354504
     74 C25         0.0470   -7.5700    1.1360 c3        1 MOL     -0.469337
     75 O14         0.1440   -5.9650   -0.4960 oh        1 MOL     -0.606130
     76 H29        -1.4590   -4.5180    0.8760 hn        1 MOL      0.104610
     77 H30         0.5090   -5.6190    2.7680 h1        1 MOL      0.092211
     78 H31         1.7260   -6.2790    0.5730 h1        1 MOL      0.014601
     79 H32         0.7070   -5.2520   -0.8010 ho        1 MOL      0.439013
     80 H33        -1.0410   -7.4610    1.1970 hc        1 MOL      0.122002
     81 H34         0.1870   -8.3500    0.3950 hc        1 MOL      0.122002
     82 H35         0.3610   -7.9180    2.1270 hc        1 MOL      0.122002
     83 N9          2.3410   -3.8950    2.4020 n         1 MOL     -0.431413
     84 C26         3.2980   -2.8080    2.3070 c3        1 MOL      0.360899
     85 C27         4.0820   -3.1710    1.0120 c         1 MOL      0.212775
     86 O15         4.9630   -4.0680    0.9790 o         1 MOL     -0.550137
     87 C28         4.1250   -2.5740    3.6180 c3        1 MOL      0.047607
     88 C29         5.3080   -1.5810    3.4600 c3        1 MOL      0.064006
     89 C30         3.1380   -2.1990    4.8640 c3        1 MOL     -0.355373
     90 C31         4.8880   -0.2640    2.7890 c3        1 MOL     -0.278825
     91 H36         2.7250   -4.7200    2.8430 hn        1 MOL      0.269343
     92 H37         2.8280   -1.8410    2.1270 h1        1 MOL     -0.028213
     93 H38         4.5520   -3.5230    3.9420 hc        1 MOL     -0.021441
     94 H39         6.0030   -2.1520    2.8300 hc        1 MOL      0.001774
     95 H40         5.7890   -1.3620    4.4170 hc        1 MOL      0.001774
     96 H41         3.6790   -1.9660    5.7840 hc        1 MOL      0.091761
     97 H42         2.5590   -1.2960    4.6580 hc        1 MOL      0.091761
     98 H43         2.3900   -2.9830    4.9980 hc        1 MOL      0.091761
     99 H44         4.1910    0.2740    3.4370 hc        1 MOL      0.059028
    100 H45         5.8370    0.2530    2.6430 hc        1 MOL      0.059028
    101 H46         4.4030   -0.2860    1.8190 hc        1 MOL      0.059028
    102 N10         3.7960   -2.4290   -0.0880 n         1 MOL     -0.014849
    103 C32         4.4530   -2.6500   -1.4350 c3        1 MOL      0.065079
    104 C33         5.4730   -1.5890   -1.9410 c         1 MOL      0.592120
    105 O16         5.8610   -1.6120   -3.0790 o         1 MOL     -0.538137
    106 C34         3.3340   -2.9000   -2.5260 c3        1 MOL     -0.356956
    107 C35         2.0930   -3.5440   -1.9320 c         1 MOL      0.795996
    108 O17         2.2570   -4.6980   -1.4400 o         1 MOL     -0.671499
    109 O18         0.9600   -3.0230   -2.1750 o         1 MOL     -0.671499
    110 H47         3.1080   -1.7100    0.0620 hn        1 MOL      0.217037
    111 H48         5.0370   -3.5750   -1.3350 h1        1 MOL      0.077356
    112 H49         3.8090   -3.5340   -3.2760 hc        1 MOL      0.081280
    113 H50         2.9970   -1.9410   -2.9240 hc        1 MOL      0.081280
    114 N11         5.8460   -0.5380   -1.1060 n         1 MOL     -0.789421
    115 C36         6.7310    0.5840   -1.5190 c3        1 MOL      0.566020
    116 C37         6.3080    1.8280   -0.7440 c         1 MOL      0.364752
    117 O19         6.1780    1.7270    0.5230 o         1 MOL     -0.543230
    118 C38         8.1840    0.0730   -1.1990 c3        1 MOL     -0.341332
    119 C39         9.2750    1.1300   -1.3610 ca        1 MOL      0.089187
    120 C40         9.5680    1.9820   -0.2200 ca        1 MOL     -0.142960
    121 C41         9.8370    1.3500   -2.6080 ca        1 MOL     -0.142960
    122 C42        10.3660    3.1060   -0.4700 ca        1 MOL     -0.149393
    123 C43        10.8740    2.3110   -2.6820 ca        1 MOL     -0.149393
    124 C44        11.1750    3.1700   -1.6100 ca        1 MOL     -0.074573
    125 H51         5.6470   -0.5890   -0.1220 hn        1 MOL      0.347794
    126 H52         6.6740    0.7010   -2.5970 h1        1 MOL     -0.006174
    127 H53         8.4690   -0.7140   -1.8960 hc        1 MOL      0.115453
    128 H54         8.2150   -0.3580   -0.1910 hc        1 MOL      0.115453
    129 H55         8.9400    1.8170    0.6440 ha        1 MOL      0.121488
    130 H56         9.4810    0.8460   -3.4890 ha        1 MOL      0.121488
    131 H57        10.5450    3.7760    0.3630 ha        1 MOL      0.106110
    132 H58        11.3550    2.5420   -3.6240 ha        1 MOL      0.106110
    133 H59        11.9820    3.8850   -1.6940 ha        1 MOL      0.097664
    134 N12         6.1960    3.0060   -1.3230 n         1 MOL     -0.139962
    135 C45         6.1300    4.3710   -0.6820 c3        1 MOL      0.080102
    136 C46         5.0310    4.7030    0.2860 c         1 MOL      0.495804
    137 O20         5.1460    5.8070    0.8700 o         1 MOL     -0.568123
    138 C47         6.1880    5.4450   -1.7440 c3        1 MOL     -0.216500
    139 C48         6.8880    4.6420   -2.8450 c3        1 MOL      0.258653
    140 C49         6.2630    3.2570   -2.7600 c3        1 MOL     -0.359305
    141 H60         6.8960    4.3950    0.0920 h1        1 MOL      0.083455
    142 H61         5.2010    5.7040   -2.1270 hc        1 MOL      0.091703
    143 H62         6.7760    6.2990   -1.4050 hc        1 MOL      0.091703
    144 H63         6.7490    5.1730   -3.7890 hc        1 MOL     -0.036603
    145 H64         7.9620    4.6210   -2.6650 hc        1 MOL     -0.036603
    146 H65         5.3100    3.3320   -3.2880 h1        1 MOL      0.130451
    147 H66         6.9270    2.5470   -3.2520 h1        1 MOL      0.130451
    148 N13         4.0420    3.8490    0.6100 n         1 MOL     -0.375513
    149 C50         2.7740    4.2110    1.2710 c3        1 MOL     -0.097645
    150 C51         2.9730    4.4840    2.7560 c         1 MOL      0.485182
    151 O21         1.9320    4.8170    3.3870 o         1 MOL     -0.541506
    152 C52         1.8100    2.9790    1.0700 c3        1 MOL     -0.176112
    153 C53         2.4320    1.5980    1.4050 c3        1 MOL     -0.159172
    154 C54         1.5470    0.5000    0.7210 c         1 MOL      0.777308
    155 O22         1.9900   -0.1970   -0.1690 o         1 MOL     -0.764766
    156 O23         0.3290    0.3750    1.0510 o         1 MOL     -0.764766
    157 H67         4.1180    2.9270    0.2220 hn        1 MOL      0.253570
    158 H68         2.3350    5.0970    0.8210 h1        1 MOL      0.140078
    159 H69         1.5080    2.9270    0.0220 hc        1 MOL      0.113510
    160 H70         0.8840    3.0830    1.6340 hc        1 MOL      0.113510
    161 H71         2.5150    1.4400    2.4870 hc        1 MOL      0.049490
    162 H72         3.4770    1.5330    1.1360 hc        1 MOL      0.049490
    163 N14         4.1780    4.4480    3.2520 n         1 MOL     -0.217465
    164 C55         4.5630    4.9790    4.5570 c3        1 MOL     -0.070815
    165 H73         3.6660    5.2370    5.1230 h1        1 MOL      0.060792
    166 H74         5.1320    4.2270    5.1030 h1        1 MOL      0.060792
    167 H75         5.1750    5.8710    4.4210 h1        1 MOL      0.060792
    168 H76         4.8800    4.1520    2.5940 hn        1 MOL      0.229441
    169 Ca1        -0.3830   -1.3690   -0.6200 Ca        1 MOL      1.742462
    170 O24         0.6680   -0.2550   -2.7880 oh        1 MOL     -0.756513
    171 H77         0.9850    0.5890   -3.1150 ho        1 MOL      0.378842
    172 H78         0.5470   -0.7840   -3.5700 ho        1 MOL      0.378842
    173 O25        -2.5380   -1.1530    1.0390 oh        1 MOL     -0.756513
    174 H79        -3.4910   -1.2320    0.9870 ho        1 MOL      0.378842
    175 H80        -2.3910   -0.4450    1.6690 ho        1 MOL      0.378842
@<TRIPOS>BOND
     1    1    2 1   
     2    1    4 1   
     3    1    5 1   
     4    1    6 1   
     5    2    3 2   
     6    2    7 1   
     7    7    8 1   
     8    7   15 1   
     9    8    9 1   
    10    8   11 1   
    11    8   16 1   
    12    9   10 2   
    13    9   19 1   
    14   11   12 1   
    15   11   17 1   
    16   11   18 1   
    17   12   13 1   
    18   12   14 1   
    19   19   20 1   
    20   19   24 1   
    21   20   21 1   
    22   20   23 1   
    23   20   25 1   
    24   21   22 2   
    25   21   29 1   
    26   23   26 1   
    27   23   27 1   
    28   23   28 1   
    29   29   30 1   
    30   29   37 1   
    31   30   31 1   
    32   30   33 1   
    33   30   38 1   
    34   31   32 2   
    35   31   41 1   
    36   33   34 1   
    37   33   39 1   
    38   33   40 1   
    39   34   35 1   
    40   34   36 1   
    41   41   42 1   
    42   41   45 1   
    43   42   43 1   
    44   42   46 1   
    45   42   47 1   
    46   43   44 2   
    47   43   48 1   
    48   48   49 1   
    49   48   56 1   
    50   49   50 1   
    51   49   52 1   
    52   49   57 1   
    53   50   51 2   
    54   50   62 1   
    55   52   53 1   
    56   52   58 1   
    57   52   59 1   
    58   53   54 1   
    59   53   55 2   
    60   54   60 1   
    61   54   61 1   
    62   62   63 1   
    63   62   66 1   
    64   63   64 1   
    65   63   67 1   
    66   63   68 1   
    67   64   65 2   
    68   64   69 1   
    69   69   70 1   
    70   69   76 1   
    71   70   71 1   
    72   70   73 1   
    73   70   77 1   
    74   71   72 2   
    75   71   83 1   
    76   73   74 1   
    77   73   75 1   
    78   73   78 1   
    79   74   80 1   
    80   74   81 1   
    81   74   82 1   
    82   75   79 1   
    83   83   84 1   
    84   83   91 1   
    85   84   85 1   
    86   84   87 1   
    87   84   92 1   
    88   85   86 2   
    89   85  102 1   
    90   87   88 1   
    91   87   89 1   
    92   87   93 1   
    93   88   90 1   
    94   88   94 1   
    95   88   95 1   
    96   89   96 1   
    97   89   97 1   
    98   89   98 1   
    99   90   99 1   
   100   90  100 1   
   101   90  101 1   
   102  102  103 1   
   103  102  110 1   
   104  103  104 1   
   105  103  106 1   
   106  103  111 1   
   107  104  105 2   
   108  104  114 1   
   109  106  107 1   
   110  106  112 1   
   111  106  113 1   
   112  107  108 1   
   113  107  109 1   
   114  114  115 1   
   115  114  125 1   
   116  115  116 1   
   117  115  118 1   
   118  115  126 1   
   119  116  117 2   
   120  116  134 1   
   121  118  119 1   
   122  118  127 1   
   123  118  128 1   
   124  119  120 ar  
   125  119  121 ar  
   126  120  122 ar  
   127  120  129 1   
   128  121  123 ar  
   129  121  130 1   
   130  122  124 ar  
   131  122  131 1   
   132  123  124 ar  
   133  123  132 1   
   134  124  133 1   
   135  134  135 1   
   136  134  140 1   
   137  135  136 1   
   138  135  138 1   
   139  135  141 1   
   140  136  137 2   
   141  136  148 1   
   142  138  139 1   
   143  138  142 1   
   144  138  143 1   
   145  139  140 1   
   146  139  144 1   
   147  139  145 1   
   148  140  146 1   
   149  140  147 1   
   150  148  149 1   
   151  148  157 1   
   152  149  150 1   
   153  149  152 1   
   154  149  158 1   
   155  150  151 2   
   156  150  163 1   
   157  152  153 1   
   158  152  159 1   
   159  152  160 1   
   160  153  154 1   
   161  153  161 1   
   162  153  162 1   
   163  154  155 1   
   164  154  156 1   
   165  163  164 1   
   166  163  168 1   
   167  164  165 1   
   168  164  166 1   
   169  164  167 1   
   170  170  171 1   
   171  170  172 1   
   172  173  174 1   
   173  173  175 1   
@<TRIPOS>SUBSTRUCTURE
     1 MOL         1 TEMP              0 ****  ****    0 ROOT
