@<TRIPOS>MOLECULE
MOL
  185   180     1     0     0
SMALL
resp


@<TRIPOS>ATOM
      1 C1         -5.9470    2.0370   -3.7190 c3        1 MOL     -0.451043
      2 C2         -6.6370    1.7150   -2.3720 c         1 MOL      0.692918
      3 O1         -6.0050    1.4940   -1.3700 o         1 MOL     -0.522717
      4 H1         -5.9430    1.1450   -4.3460 hc        1 MOL      0.129446
      5 H2         -6.4910    2.8340   -4.2260 hc        1 MOL      0.129446
      6 H3         -4.9210    2.3560   -3.5360 hc        1 MOL      0.129446
      7 N1         -7.9600    1.6280   -2.2630 n         1 MOL     -0.719643
      8 C3         -8.7570    1.5250   -0.9860 c3        1 MOL      0.078326
      9 C4         -8.5860    0.2220   -0.1050 c         1 MOL      0.577666
     10 O2         -9.2130    0.1470    0.9310 o         1 MOL     -0.562983
     11 C5         -8.7230    2.8560   -0.1500 c3        1 MOL     -0.272072
     12 C6         -8.7350    4.0820   -1.0520 c         1 MOL      0.781734
     13 O3         -7.7690    4.8280   -1.3350 o         1 MOL     -0.675929
     14 O4         -9.8850    4.5290   -1.3930 o         1 MOL     -0.675929
     15 H4         -8.5390    1.8840   -3.0450 hn        1 MOL      0.365428
     16 H5         -9.8350    1.5010   -1.1250 h1        1 MOL      0.070712
     17 H6         -7.8040    2.8510    0.4270 hc        1 MOL      0.081457
     18 H7         -9.4520    2.9530    0.6520 hc        1 MOL      0.081457
     19 N2         -7.9140   -0.8220   -0.5750 n         1 MOL     -0.473324
     20 C7         -7.8460   -2.1410    0.1470 c3        1 MOL      0.209385
     21 C8         -6.3960   -2.5670    0.2710 c         1 MOL      0.543121
     22 O5         -6.1490   -3.7680    0.4030 o         1 MOL     -0.540078
     23 C9         -8.7000   -3.1980   -0.5020 c3        1 MOL     -0.158418
     24 C10       -10.1660   -2.7430   -0.5590 c3        1 MOL      0.127733
     25 C11       -11.0820   -3.9100   -1.0040 c3        1 MOL     -0.026933
     26 C12       -12.5330   -3.6100   -0.6490 c3        1 MOL     -0.039379
     27 N3        -13.4430   -4.7610   -0.6240 n4        1 MOL     -0.196908
     28 H8         -7.3280   -0.6620   -1.3830 hn        1 MOL      0.267864
     29 H9         -8.1990   -2.0500    1.1750 h1        1 MOL      0.071064
     30 H10        -8.6310   -4.1160    0.0660 hc        1 MOL      0.034276
     31 H11        -8.3200   -3.4630   -1.4920 hc        1 MOL      0.034276
     32 H12       -10.2700   -1.8630   -1.1970 hc        1 MOL     -0.003561
     33 H13       -10.4650   -2.4030    0.4330 hc        1 MOL     -0.003561
     34 H14       -10.8570   -4.8240   -0.4410 hc        1 MOL      0.026974
     35 H15       -10.9190   -4.0280   -2.0760 hc        1 MOL      0.026974
     36 H16       -12.8360   -2.8950   -1.4200 hx        1 MOL      0.094213
     37 H17       -12.5700   -3.2070    0.3530 hx        1 MOL      0.094213
     38 H18       -14.3710   -4.5610   -0.2430 hn        1 MOL      0.258467
     39 H19       -13.3550   -5.3230   -1.4560 hn        1 MOL      0.258467
     40 H20       -13.0840   -5.4320    0.0340 hn        1 MOL      0.258467
     41 N4         -5.4660   -1.6050    0.3780 n         1 MOL     -0.506653
     42 C13        -4.0530   -1.8810    0.5550 c3        1 MOL      0.043224
     43 C14        -3.7800   -2.5070    1.9430 c         1 MOL      0.387994
     44 O6         -4.6390   -2.5360    2.7920 o         1 MOL     -0.496091
     45 C15        -3.2450   -0.6300    0.3770 c3        1 MOL      0.216555
     46 C16        -1.8150   -0.7510    0.1680 c         1 MOL      0.320578
     47 O7         -1.4540   -0.6060   -1.0320 o         1 MOL     -0.665663
     48 O8         -1.0370   -0.8790    1.0690 o         1 MOL     -0.665663
     49 H21        -5.7160   -0.6270    0.4140 hn        1 MOL      0.292975
     50 H22        -3.6370   -2.5860   -0.1710 h1        1 MOL      0.024505
     51 H23        -3.4360   -0.0800    1.2950 hc        1 MOL      0.010383
     52 H24        -3.6890   -0.0590   -0.4430 hc        1 MOL      0.010383
     53 N5         -2.5640   -3.0300    2.1470 n         1 MOL     -0.089547
     54 C17        -2.1440   -3.7460    3.3500 c3        1 MOL     -0.154887
     55 C18        -1.1830   -2.9030    4.2610 c         1 MOL      0.566617
     56 O9         -1.2490   -2.9340    5.4780 o         1 MOL     -0.533113
     57 H25        -1.9990   -3.0640    1.3150 hn        1 MOL      0.111735
     58 H26        -1.6920   -4.6600    2.9520 h1        1 MOL      0.093659
     59 H27        -2.9540   -4.1260    3.9690 h1        1 MOL      0.093659
     60 N6         -0.2760   -2.1280    3.6170 n         1 MOL     -0.485527
     61 C19         0.6480   -1.2760    4.2170 c3        1 MOL      0.033880
     62 C20         0.2710    0.1870    4.0110 c         1 MOL      0.353958
     63 O10         0.9870    1.0780    4.3880 o         1 MOL     -0.514428
     64 C21         2.1380   -1.5250    3.9820 c3        1 MOL     -0.236382
     65 C22         2.5560   -1.0730    2.6230 c         1 MOL      0.571175
     66 N7          3.6410   -0.3510    2.5500 n         1 MOL     -0.594905
     67 O11         1.9020   -1.2720    1.6580 o         1 MOL     -0.655011
     68 H28        -0.1770   -2.1210    2.6070 hn        1 MOL      0.364560
     69 H29         0.5080   -1.4650    5.2850 h1        1 MOL      0.135243
     70 H30         2.2900   -2.5920    4.1550 hc        1 MOL      0.103938
     71 H31         2.8420   -1.1570    4.7290 hc        1 MOL      0.103938
     72 H32         4.2420   -0.1860    3.3490 hn        1 MOL      0.303160
     73 H33         3.8530    0.0630    1.6540 hn        1 MOL      0.303160
     74 N8         -0.9550    0.5370    3.5300 n         1 MOL     -0.054837
     75 C23        -1.7060    1.8010    3.3860 c3        1 MOL     -0.538967
     76 C24        -1.3060    2.7440    2.2820 c         1 MOL      0.711629
     77 O12        -1.4850    3.9350    2.3490 o         1 MOL     -0.549845
     78 H34        -1.5410   -0.2490    3.2730 hn        1 MOL      0.184064
     79 H35        -1.5650    2.3350    4.3280 h1        1 MOL      0.192500
     80 H36        -2.7510    1.5370    3.2360 h1        1 MOL      0.192500
     81 N9         -0.5390    2.2960    1.3350 n         1 MOL     -0.488526
     82 C25         0.1720    3.1010    0.3790 c3        1 MOL      0.150081
     83 C26         1.4930    2.3690    0.1170 c         1 MOL      0.565988
     84 O13         1.4860    1.1170   -0.0470 o         1 MOL     -0.444653
     85 C27        -0.5540    3.2630   -0.9510 c3        1 MOL      0.093099
     86 C28        -1.8470    4.0900   -0.8850 ca        1 MOL     -0.219434
     87 C29        -1.8310    5.4700   -1.0030 ca        1 MOL     -0.004871
     88 C30        -3.0360    3.3280   -0.6830 ca        1 MOL     -0.004871
     89 C31        -3.0180    6.1730   -1.0590 ca        1 MOL     -0.317333
     90 C32        -4.2050    4.0690   -0.7510 ca        1 MOL     -0.317333
     91 C33        -4.2290    5.4440   -0.9710 ca        1 MOL      0.441103
     92 O14        -5.3480    6.1720   -0.9220 oh        1 MOL     -0.539892
     93 H37        -0.4420    1.2980    1.2070 hn        1 MOL      0.341090
     94 H38         0.3660    4.1110    0.7380 h1        1 MOL      0.052081
     95 H39        -0.7960    2.3230   -1.4440 hc        1 MOL     -0.030546
     96 H40         0.1750    3.7340   -1.6160 hc        1 MOL     -0.030546
     97 H41        -0.9080    6.0230   -1.0850 ha        1 MOL      0.074554
     98 H42        -3.0960    2.2780   -0.4210 ha        1 MOL      0.074554
     99 H43        -3.0820    7.2450   -0.9840 ha        1 MOL      0.149667
    100 H44        -5.1500    3.5390   -0.7330 ha        1 MOL      0.149667
    101 H45        -6.1410    5.6370   -0.9420 ho        1 MOL      0.408023
    102 N10         2.5560    3.0800   -0.2090 n         1 MOL     -0.773468
    103 C34         3.7360    2.5970   -0.8830 c3        1 MOL      0.144753
    104 C35         4.7980    2.0510    0.1710 c         1 MOL      0.669559
    105 O15         5.1320    0.8460    0.3740 o         1 MOL     -0.561294
    106 C36         4.3550    3.6170   -1.8450 c3        1 MOL     -0.059459
    107 C37         3.3280    4.0920   -2.9930 c3        1 MOL      0.226531
    108 C38         5.6050    3.1470   -2.5780 c3        1 MOL     -0.578441
    109 C39         2.7330    2.9790   -3.8280 c3        1 MOL     -0.316468
    110 H46         2.3240    4.0660   -0.1950 hn        1 MOL      0.365103
    111 H47         3.6020    1.7190   -1.5060 h1        1 MOL      0.004257
    112 H48         4.6380    4.4680   -1.2310 hc        1 MOL      0.035583
    113 H49         3.7330    4.8510   -3.6640 hc        1 MOL     -0.015040
    114 H50         2.5440    4.6890   -2.5290 hc        1 MOL     -0.015040
    115 H51         6.4740    2.9580   -1.9650 hc        1 MOL      0.163927
    116 H52         5.4300    2.2400   -3.1530 hc        1 MOL      0.163927
    117 H53         5.9240    3.8820   -3.3300 hc        1 MOL      0.163927
    118 H54         2.2950    3.3890   -4.7320 hc        1 MOL      0.089654
    119 H55         3.4510    2.2930   -4.2860 hc        1 MOL      0.089654
    120 H56         1.9770    2.4770   -3.2240 hc        1 MOL      0.089654
    121 N11         5.3590    3.0240    0.9520 n         1 MOL     -0.305582
    122 C40         6.2560    2.7570    2.0580 c3        1 MOL     -0.305634
    123 C41         7.5640    2.1050    1.6680 c         1 MOL      0.461724
    124 O16         8.1670    1.3220    2.4010 o         1 MOL     -0.434870
    125 C42         6.5160    4.0580    2.8670 c3        1 MOL      0.130528
    126 O17         5.3460    4.7950    3.1480 oh        1 MOL     -0.575841
    127 H57         5.0790    3.9990    0.8540 hn        1 MOL      0.297502
    128 H58         5.7700    2.2220    2.8710 h1        1 MOL      0.185322
    129 H59         6.9700    4.7470    2.1550 h1        1 MOL      0.090701
    130 H60         7.0240    3.8790    3.8100 h1        1 MOL      0.090701
    131 H61         4.7080    4.2870    3.6570 ho        1 MOL      0.409440
    132 N12         8.1390    2.4180    0.4240 n         1 MOL     -0.396560
    133 C43         9.2380    1.7130   -0.2000 c3        1 MOL      0.143443
    134 C44         9.2410    0.1370   -0.1290 c         1 MOL      0.557766
    135 O18        10.2990   -0.4650   -0.0310 o         1 MOL     -0.530304
    136 C45        10.4980    2.4200    0.2290 c3        1 MOL     -0.252895
    137 H62         7.7340    3.1170   -0.1940 hn        1 MOL      0.265395
    138 H63         9.1740    1.9720   -1.2600 h1        1 MOL      0.057269
    139 H64        10.5010    2.6270    1.2970 hc        1 MOL      0.072080
    140 H65        11.3810    2.0260   -0.2630 hc        1 MOL      0.072080
    141 H66        10.4410    3.4690   -0.0620 hc        1 MOL      0.072080
    142 N13         8.0970   -0.5080   -0.0340 n         1 MOL     -0.643188
    143 C46         7.8520   -1.9450    0.1710 c3        1 MOL      0.770952
    144 C47         6.9700   -2.4110   -1.0300 c         1 MOL      0.285739
    145 O19         6.3110   -1.6110   -1.6960 o         1 MOL     -0.469070
    146 C48         7.0410   -2.1500    1.5180 c3        1 MOL     -0.474644
    147 H67         7.2740    0.0180    0.2490 hn        1 MOL      0.173091
    148 H68         8.8000   -2.4850    0.2690 h1        1 MOL     -0.086655
    149 H69         6.9150   -3.2290    1.5130 hc        1 MOL      0.121615
    150 H70         7.6880   -1.7300    2.2930 hc        1 MOL      0.121615
    151 H71         6.0750   -1.6550    1.4820 hc        1 MOL      0.121615
    152 N14         6.8820   -3.7210   -1.2410 n         1 MOL     -0.541294
    153 C49         6.1090   -4.4220   -2.2400 c3        1 MOL      0.064227
    154 C50         6.3980   -4.0340   -3.6900 c         1 MOL      0.360587
    155 O20         5.6110   -4.1490   -4.5970 o         1 MOL     -0.480970
    156 C51         4.5660   -4.1670   -1.9650 c3        1 MOL      0.126050
    157 C52         4.2680   -4.6790   -0.5840 c3        1 MOL     -0.086856
    158 C53         2.7670   -4.8600   -0.4560 c         1 MOL      0.607300
    159 O21         2.0950   -3.8690   -0.1270 o         1 MOL     -0.672803
    160 O22         2.3110   -5.9790   -0.7880 o         1 MOL     -0.672803
    161 H72         7.3740   -4.2930   -0.5580 hn        1 MOL      0.300211
    162 H73         6.2840   -5.4930   -2.1710 h1        1 MOL      0.095549
    163 H74         3.9460   -4.7970   -2.6090 hc        1 MOL     -0.000440
    164 H75         4.3160   -3.1130   -2.0760 hc        1 MOL     -0.000440
    165 H76         4.6300   -3.9950    0.1920 hc        1 MOL     -0.007402
    166 H77         4.6870   -5.6780   -0.5300 hc        1 MOL     -0.007402
    167 N15         7.5740   -3.4040   -3.9390 n         1 MOL     -0.245558
    168 C54         7.7450   -2.5150   -5.0770 c3        1 MOL     -0.119307
    169 H78         8.3840   -1.6790   -4.7930 h1        1 MOL      0.081188
    170 H79         8.2070   -3.0610   -5.9000 h1        1 MOL      0.081188
    171 H80         6.7730   -2.1370   -5.3930 h1        1 MOL      0.081188
    172 H81         8.1980   -3.3890   -3.1380 hn        1 MOL      0.199325
    173 Ca1         1.0610   -1.4970   -0.7530 Ca        1 MOL      1.801586
    174 O23         0.8350   -2.7270   -3.1400 oh        1 MOL     -0.895324
    175 H82         0.7690   -3.6770   -3.0590 ho        1 MOL      0.439754
    176 H83         0.4240   -2.5230   -3.9800 ho        1 MOL      0.439754
    177 O24         3.8280   -0.9830   -0.8210 oh        1 MOL     -0.895324
    178 H84         4.4410   -1.4930   -1.3500 ho        1 MOL      0.439754
    179 H85         4.3820   -0.3840   -0.3240 ho        1 MOL      0.439754
    180 O25         0.5720    0.3210   -2.6150 oh        1 MOL     -0.895324
    181 H86         0.1860    1.1890   -2.4640 ho        1 MOL      0.439754
    182 H87         0.5990    0.2280   -3.5600 ho        1 MOL      0.439754
    183 O26        -0.7500   -3.4990   -0.3640 oh        1 MOL     -0.895324
    184 H88        -1.5050   -3.5990   -0.9430 ho        1 MOL      0.439754
    185 H89        -0.5080   -4.3860   -0.1290 ho        1 MOL      0.439754
@<TRIPOS>BOND
     1    1    2 1   
     2    1    4 1   
     3    1    5 1   
     4    1    6 1   
     5    2    3 2   
     6    2    7 1   
     7    7    8 1   
     8    7   15 1   
     9    8    9 1   
    10    8   11 1   
    11    8   16 1   
    12    9   10 2   
    13    9   19 1   
    14   11   12 1   
    15   11   17 1   
    16   11   18 1   
    17   12   13 1   
    18   12   14 1   
    19   19   20 1   
    20   19   28 1   
    21   20   21 1   
    22   20   23 1   
    23   20   29 1   
    24   21   22 2   
    25   21   41 1   
    26   23   24 1   
    27   23   30 1   
    28   23   31 1   
    29   24   25 1   
    30   24   32 1   
    31   24   33 1   
    32   25   26 1   
    33   25   34 1   
    34   25   35 1   
    35   26   27 1   
    36   26   36 1   
    37   26   37 1   
    38   27   38 1   
    39   27   39 1   
    40   27   40 1   
    41   41   42 1   
    42   41   49 1   
    43   42   43 1   
    44   42   45 1   
    45   42   50 1   
    46   43   44 2   
    47   43   53 1   
    48   45   46 1   
    49   45   51 1   
    50   45   52 1   
    51   46   47 1   
    52   46   48 1   
    53   53   54 1   
    54   53   57 1   
    55   54   55 1   
    56   54   58 1   
    57   54   59 1   
    58   55   56 2   
    59   55   60 1   
    60   60   61 1   
    61   60   68 1   
    62   61   62 1   
    63   61   64 1   
    64   61   69 1   
    65   62   63 2   
    66   62   74 1   
    67   64   65 1   
    68   64   70 1   
    69   64   71 1   
    70   65   66 1   
    71   65   67 2   
    72   66   72 1   
    73   66   73 1   
    74   74   75 1   
    75   74   78 1   
    76   75   76 1   
    77   75   79 1   
    78   75   80 1   
    79   76   77 2   
    80   76   81 1   
    81   81   82 1   
    82   81   93 1   
    83   82   83 1   
    84   82   85 1   
    85   82   94 1   
    86   83   84 2   
    87   83  102 1   
    88   85   86 1   
    89   85   95 1   
    90   85   96 1   
    91   86   87 ar  
    92   86   88 ar  
    93   87   89 ar  
    94   87   97 1   
    95   88   90 ar  
    96   88   98 1   
    97   89   91 ar  
    98   89   99 1   
    99   90   91 ar  
   100   90  100 1   
   101   91   92 1   
   102   92  101 1   
   103  102  103 1   
   104  102  110 1   
   105  103  104 1   
   106  103  106 1   
   107  103  111 1   
   108  104  105 2   
   109  104  121 1   
   110  106  107 1   
   111  106  108 1   
   112  106  112 1   
   113  107  109 1   
   114  107  113 1   
   115  107  114 1   
   116  108  115 1   
   117  108  116 1   
   118  108  117 1   
   119  109  118 1   
   120  109  119 1   
   121  109  120 1   
   122  121  122 1   
   123  121  127 1   
   124  122  123 1   
   125  122  125 1   
   126  122  128 1   
   127  123  124 2   
   128  123  132 1   
   129  125  126 1   
   130  125  129 1   
   131  125  130 1   
   132  126  131 1   
   133  132  133 1   
   134  132  137 1   
   135  133  134 1   
   136  133  136 1   
   137  133  138 1   
   138  134  135 2   
   139  134  142 1   
   140  136  139 1   
   141  136  140 1   
   142  136  141 1   
   143  142  143 1   
   144  142  147 1   
   145  143  144 1   
   146  143  146 1   
   147  143  148 1   
   148  144  145 2   
   149  144  152 1   
   150  146  149 1   
   151  146  150 1   
   152  146  151 1   
   153  152  153 1   
   154  152  161 1   
   155  153  154 1   
   156  153  156 1   
   157  153  162 1   
   158  154  155 2   
   159  154  167 1   
   160  156  157 1   
   161  156  163 1   
   162  156  164 1   
   163  157  158 1   
   164  157  165 1   
   165  157  166 1   
   166  158  159 1   
   167  158  160 1   
   168  167  168 1   
   169  167  172 1   
   170  168  169 1   
   171  168  170 1   
   172  168  171 1   
   173  174  175 1   
   174  174  176 1   
   175  177  178 1   
   176  177  179 1   
   177  180  181 1   
   178  180  182 1   
   179  183  184 1   
   180  183  185 1   
@<TRIPOS>SUBSTRUCTURE
     1 MOL         1 TEMP              0 ****  ****    0 ROOT
