@<TRIPOS>MOLECULE
MOL
  192   187     1     0     0
SMALL
resp


@<TRIPOS>ATOM
      1 C1          5.0280   -1.1200   -3.1390 c3        1 MOL     -0.595621
      2 C2          4.3100   -1.7100   -1.9710 c         1 MOL      0.701811
      3 O1          3.2690   -1.1150   -1.4500 o         1 MOL     -0.514307
      4 H1          4.3060   -0.6560   -3.8120 hc        1 MOL      0.149781
      5 H2          5.7340   -0.3670   -2.7900 hc        1 MOL      0.149781
      6 H3          5.5660   -1.9050   -3.6700 hc        1 MOL      0.149781
      7 N1          4.7400   -2.9220   -1.4760 n         1 MOL     -0.488902
      8 C3          4.0680   -3.7330   -0.4280 c3        1 MOL     -0.224008
      9 C4          2.5460   -4.0340   -0.5380 c         1 MOL      0.815925
     10 O2          1.8350   -3.8000    0.4420 o         1 MOL     -0.547630
     11 C5          4.5260   -3.4420    0.9850 c3        1 MOL     -0.228588
     12 C6          6.0260   -3.2970    1.1980 c         1 MOL      0.810726
     13 O3          6.9350   -3.7020    0.3940 o         1 MOL     -0.739365
     14 O4          6.3090   -2.8270    2.3370 o         1 MOL     -0.739365
     15 H4          5.5350   -3.3600   -1.9070 hn        1 MOL      0.260411
     16 H5          4.5100   -4.7260   -0.5270 h1        1 MOL      0.102935
     17 H6          4.2770   -4.2700    1.6540 hc        1 MOL      0.109569
     18 H7          4.1130   -2.5560    1.4860 hc        1 MOL      0.109569
     19 N2          2.0620   -4.3400   -1.7730 n         1 MOL     -0.669383
     20 C7          0.5890   -4.6210   -2.0280 c3        1 MOL     -0.261274
     21 C8          0.2570   -5.9610   -1.3200 c         1 MOL      0.673581
     22 O5          1.1130   -6.8060   -1.2770 o         1 MOL     -0.586577
     23 C9          0.2570   -4.6230   -3.5100 c3        1 MOL      0.042346
     24 C10         1.1880   -5.6680   -4.2540 c3        1 MOL      0.142324
     25 C11         0.6970   -3.3470   -4.1500 c3        1 MOL     -0.009131
     26 C12         0.9050   -5.8990   -5.7690 c3        1 MOL     -0.291911
     27 H8          2.6520   -4.1780   -2.5790 hn        1 MOL      0.399445
     28 H9         -0.0750   -3.8800   -1.5910 h1        1 MOL      0.213315
     29 H10        -0.7840   -4.8120   -3.7440 hc        1 MOL      0.072355
     30 H11         0.9240   -6.6130   -3.7820 hc        1 MOL     -0.013593
     31 H12         2.2460   -5.5510   -4.0090 hc        1 MOL     -0.013593
     32 H13         1.7700   -3.2050   -4.2540 hc        1 MOL      0.004230
     33 H14         0.2650   -3.2420   -5.1480 hc        1 MOL      0.004230
     34 H15         0.3840   -2.5120   -3.5320 hc        1 MOL      0.004230
     35 H16         0.8050   -4.9370   -6.2660 hc        1 MOL      0.056182
     36 H17         1.7480   -6.3610   -6.2790 hc        1 MOL      0.056182
     37 H18        -0.0680   -6.3500   -5.8920 hc        1 MOL      0.056182
     38 N3         -0.9800   -6.2460   -0.8670 n         1 MOL     -0.512662
     39 C13        -2.0990   -5.2970   -0.4370 c3        1 MOL     -0.025168
     40 C14        -2.8920   -5.9800    0.6520 c         1 MOL      0.510318
     41 O6         -3.2470   -7.1520    0.4690 o         1 MOL     -0.549241
     42 C15        -2.9740   -4.8470   -1.6860 c3        1 MOL     -0.079297
     43 C16        -4.2000   -4.0110   -1.3200 c         1 MOL      0.743851
     44 O7         -5.2440   -4.1740   -1.9730 o         1 MOL     -0.714605
     45 O8         -4.0450   -3.1900   -0.3940 o         1 MOL     -0.714605
     46 H19        -1.0820   -7.1860   -0.5160 hn        1 MOL      0.288872
     47 H20        -1.6600   -4.3960   -0.0290 h1        1 MOL      0.045764
     48 H21        -3.2010   -5.7390   -2.2600 hc        1 MOL      0.004781
     49 H22        -2.3990   -4.1410   -2.2820 hc        1 MOL      0.004781
     50 N4         -3.2370   -5.2760    1.7110 n         1 MOL     -0.224628
     51 C17        -3.9640   -5.7170    2.8900 c3        1 MOL     -0.306412
     52 C18        -4.9400   -4.5870    3.3490 c         1 MOL      0.693686
     53 O9         -5.3040   -4.5630    4.5200 o         1 MOL     -0.637140
     54 H23        -2.8980   -4.3270    1.6260 hn        1 MOL      0.272309
     55 H24        -3.2260   -5.9180    3.6720 h1        1 MOL      0.127672
     56 H25        -4.5930   -6.5350    2.5660 h1        1 MOL      0.127672
     57 N5         -5.2870   -3.5690    2.6060 n         1 MOL     -0.406293
     58 C19        -6.2080   -2.4410    2.9170 c3        1 MOL      0.043962
     59 C20        -7.2320   -2.1460    1.7870 c         1 MOL      0.364698
     60 O10        -8.3860   -1.8450    2.0610 o         1 MOL     -0.574262
     61 C21        -5.4300   -1.1940    3.3010 c3        1 MOL     -0.035710
     62 C22        -4.3690   -0.9130    2.3320 c         1 MOL      0.682686
     63 O11        -3.2190   -1.3610    2.5630 o         1 MOL     -0.659715
     64 O12        -4.6220   -0.2730    1.2950 o         1 MOL     -0.659715
     65 H26        -4.7880   -3.6130    1.7350 hn        1 MOL      0.171421
     66 H27        -6.8260   -2.6660    3.7880 h1        1 MOL      0.085057
     67 H28        -4.9030   -1.4820    4.2120 hc        1 MOL      0.006730
     68 H29        -6.1230   -0.3850    3.5220 hc        1 MOL      0.006730
     69 N6         -6.8240   -2.1010    0.5650 n         1 MOL     -0.102015
     70 C23        -7.6820   -1.6900   -0.5270 c3        1 MOL     -0.360129
     71 C24        -8.0170   -0.2350   -0.5580 c         1 MOL      0.597898
     72 O13        -8.9720    0.1630   -1.2280 o         1 MOL     -0.610032
     73 H30        -5.8510   -2.2920    0.3930 hn        1 MOL      0.247389
     74 H31        -8.5860   -2.2970   -0.4020 h1        1 MOL      0.140576
     75 H32        -7.1870   -1.9160   -1.4810 h1        1 MOL      0.140576
     76 N7         -7.1880    0.5360    0.1900 n         1 MOL      0.054043
     77 C25        -7.2110    2.0030    0.3660 c3        1 MOL     -0.120853
     78 C26        -7.1610    2.7670   -0.9090 c         1 MOL      0.526262
     79 O14        -7.7310    3.8770   -1.0770 o         1 MOL     -0.553086
     80 C27        -8.3870    2.4600    1.2780 c3        1 MOL      0.083894
     81 C28        -8.4300    1.7580    2.6410 c3        1 MOL     -0.023421
     82 C29        -8.9880    2.4960    3.8920 c         1 MOL      0.591356
     83 N8        -10.1930    3.0530    3.7800 n         1 MOL     -0.790373
     84 O15        -8.3380    2.4600    4.9440 o         1 MOL     -0.551489
     85 H33        -6.4570    0.0560    0.6970 hn        1 MOL      0.039543
     86 H34        -6.3530    2.2280    0.9990 h1        1 MOL      0.118546
     87 H35        -9.3350    2.1890    0.8080 hc        1 MOL     -0.022402
     88 H36        -8.3780    3.5490    1.3880 hc        1 MOL     -0.022402
     89 H37        -7.4220    1.4740    2.9470 hc        1 MOL      0.006631
     90 H38        -9.0430    0.8870    2.4720 hc        1 MOL      0.006631
     91 H39       -10.7800    2.8540    2.9860 hn        1 MOL      0.346890
     92 H40       -10.6010    3.5020    4.5920 hn        1 MOL      0.346890
     93 N9         -6.3330    2.3120   -1.8440 n         1 MOL     -0.325155
     94 C30        -5.8620    2.9760   -3.0460 c3        1 MOL     -0.176902
     95 C31        -4.3340    2.8690   -3.3000 c         1 MOL      0.608597
     96 O16        -3.7440    3.7460   -3.9850 o         1 MOL     -0.568308
     97 C32        -6.6360    2.6030   -4.2570 c3        1 MOL      0.352885
     98 C33        -6.5330    1.0760   -4.5510 c3        1 MOL     -0.377975
     99 C34        -8.1210    2.9580   -4.2890 c3        1 MOL     -0.377975
    100 H41        -5.9200    1.4100   -1.6700 hn        1 MOL      0.141884
    101 H42        -5.9600    4.0430   -2.8300 h1        1 MOL      0.135368
    102 H43        -6.1870    3.2000   -5.0530 hc        1 MOL     -0.048589
    103 H44        -6.8760    0.4230   -3.7410 hc        1 MOL      0.086704
    104 H45        -7.0200    0.8440   -5.4930 hc        1 MOL      0.086704
    105 H46        -5.4650    0.8430   -4.6370 hc        1 MOL      0.086704
    106 H47        -8.4440    2.6670   -5.2900 hc        1 MOL      0.086704
    107 H48        -8.4930    2.2090   -3.5920 hc        1 MOL      0.086704
    108 H49        -8.2430    4.0200   -4.0730 hc        1 MOL      0.086704
    109 N10        -3.6240    1.8430   -2.7190 n         1 MOL     -0.462277
    110 C35        -2.1870    1.7670   -2.6410 c3        1 MOL      0.043165
    111 C36        -1.6120    2.4780   -1.3650 c         1 MOL      0.634052
    112 O17        -2.4010    2.7250   -0.4360 o         1 MOL     -0.560424
    113 C37        -1.8550    0.2140   -2.6350 c3        1 MOL     -0.071941
    114 C38        -0.3480    0.0000   -2.6740 c         1 MOL      0.377868
    115 N11         0.1200   -0.7030   -1.6860 n         1 MOL     -0.523018
    116 O18         0.4330    0.5180   -3.4870 o         1 MOL     -0.545978
    117 H50        -4.1900    1.1740   -2.2250 hn        1 MOL      0.319151
    118 H51        -1.7180    2.1860   -3.5210 h1        1 MOL      0.084631
    119 H52        -2.2680   -0.2150   -3.5440 hc        1 MOL      0.056659
    120 H53        -2.3810   -0.3210   -1.8440 hc        1 MOL      0.056659
    121 H54        -0.5380   -0.9720   -0.9760 hn        1 MOL      0.314752
    122 H55         1.0800   -1.0140   -1.7570 hn        1 MOL      0.314752
    123 N12        -0.2930    2.7210   -1.1830 n         1 MOL     -0.656025
    124 C39         0.3770    3.3060   -0.0020 c3        1 MOL      0.302047
    125 C40         1.6860    3.9180   -0.4630 c         1 MOL      0.485395
    126 O19         2.1880    3.5860   -1.5370 o         1 MOL     -0.553506
    127 C41         0.5900    2.1090    1.0410 c3        1 MOL     -0.047483
    128 C42         0.5100    2.6640    2.4440 ca        1 MOL      0.181068
    129 C43         1.6570    2.8890    3.2390 ca        1 MOL     -0.339016
    130 C44        -0.7630    2.7910    3.0330 ca        1 MOL     -0.339016
    131 C45         1.4960    3.3580    4.5330 ca        1 MOL     -0.079710
    132 C46        -0.9460    3.1200    4.3970 ca        1 MOL     -0.079710
    133 C47         0.2390    3.4700    5.1900 ca        1 MOL      0.122845
    134 O20         0.0460    4.0420    6.3710 oh        1 MOL     -0.415986
    135 H56         0.2860    2.4010   -1.9490 hn        1 MOL      0.314876
    136 H57        -0.2480    4.0790    0.4630 h1        1 MOL      0.042218
    137 H58         1.5350    1.5870    0.8680 hc        1 MOL      0.055130
    138 H59        -0.2130    1.3920    0.8810 hc        1 MOL      0.055130
    139 H60         2.6560    2.8410    2.8390 ha        1 MOL      0.197032
    140 H61        -1.6600    2.4470    2.5460 ha        1 MOL      0.197032
    141 H62         2.3880    3.4890    5.1340 ha        1 MOL      0.104672
    142 H63        -1.8900    3.1830    4.9260 ha        1 MOL      0.104672
    143 H64         0.8570    4.5240    6.5620 ho        1 MOL      0.328173
    144 N13         2.3480    4.7930    0.3020 n         1 MOL     -0.548601
    145 C48         3.6970    5.3010    0.0390 c3        1 MOL      0.303217
    146 C49         4.6910    4.5700    0.9960 c         1 MOL      0.551084
    147 O21         4.6210    4.7720    2.2360 o         1 MOL     -0.601026
    148 C50         3.6520    6.8100    0.2930 c3        1 MOL     -0.003783
    149 C51         2.9190    7.6450   -0.7070 c3        1 MOL     -0.204361
    150 C52         3.0140    9.1650   -0.4070 c         1 MOL      0.741193
    151 O22         3.4730    9.9530   -1.2220 o         1 MOL     -0.682893
    152 O23         2.4270    9.6110    0.5900 o         1 MOL     -0.682893
    153 H65         1.8130    5.1380    1.0930 hn        1 MOL      0.266067
    154 H66         3.9480    5.1340   -1.0080 h1        1 MOL      0.018646
    155 H67         4.6510    7.2390    0.3250 hc        1 MOL      0.011099
    156 H68         3.2570    6.9310    1.3060 hc        1 MOL      0.011099
    157 H69         1.8420    7.5040   -0.6440 hc        1 MOL      0.036948
    158 H70         3.2800    7.5130   -1.7260 hc        1 MOL      0.036948
    159 N14         5.7360    3.8680    0.5130 n         1 MOL     -0.586740
    160 C53         5.9640    3.1810   -0.7450 c3        1 MOL     -0.058062
    161 C54         6.2310    4.1280   -1.9160 c         1 MOL      0.535716
    162 O24         7.0120    5.0880   -1.8010 o         1 MOL     -0.537375
    163 C55         7.0850    2.1320   -0.5150 c3        1 MOL     -0.078613
    164 C56         6.5050    0.9570    0.2290 c3        1 MOL      0.012254
    165 C57         7.5230   -0.0240    0.6440 c         1 MOL      0.706627
    166 O25         8.1850   -0.6670   -0.1870 o         1 MOL     -0.724409
    167 O26         7.7980   -0.1420    1.8590 o         1 MOL     -0.724409
    168 H71         6.4190    3.5940    1.2070 hn        1 MOL      0.362490
    169 H72         5.0210    2.6730   -0.9620 h1        1 MOL      0.124479
    170 H73         7.8490    2.6550    0.0640 hc        1 MOL      0.034044
    171 H74         7.4920    1.7620   -1.4560 hc        1 MOL      0.034044
    172 H75         5.7590    0.3760   -0.3070 hc        1 MOL      0.005419
    173 H76         6.0590    1.3150    1.1550 hc        1 MOL      0.005419
    174 N15         5.7690    3.7850   -3.1520 n         1 MOL     -0.264791
    175 C58         5.9590    4.5950   -4.3360 c3        1 MOL     -0.198661
    176 H77         5.0130    4.6820   -4.8710 h1        1 MOL      0.090250
    177 H78         6.3050    5.5870   -4.0470 h1        1 MOL      0.090250
    178 H79         6.7000    4.1260   -4.9830 h1        1 MOL      0.090250
    179 H80         5.0350    3.0970   -3.1880 hn        1 MOL      0.236830
    180 Ca1         9.0150   -2.5060    1.5310 Ca        1 MOL      1.603929
    181 O27         8.7990   -3.4520    4.0730 oh        1 MOL     -0.763480
    182 H81         9.6480   -3.7750    4.3650 ho        1 MOL      0.350774
    183 H82         8.2240   -4.2150    4.1020 ho        1 MOL      0.350774
    184 O28        10.5180   -0.4770    2.3800 oh        1 MOL     -0.763480
    185 H83        11.4310   -0.3290    2.6290 ho        1 MOL      0.350774
    186 H84        10.0140    0.0590    2.9980 ho        1 MOL      0.350774
    187 O29        11.4640   -3.0480    1.0740 oh        1 MOL     -0.763480
    188 H85        11.9300   -2.9830    0.2350 ho        1 MOL      0.350774
    189 H86        12.0970   -3.4660    1.6640 ho        1 MOL      0.350774
    190 O30         9.6410   -5.2110    1.9220 oh        1 MOL     -0.763480
    191 H87        10.4500   -5.4480    2.3800 ho        1 MOL      0.350774
    192 H88         9.0810   -5.9820    1.9990 ho        1 MOL      0.350774
@<TRIPOS>BOND
     1    1    2 1   
     2    1    4 1   
     3    1    5 1   
     4    1    6 1   
     5    2    3 2   
     6    2    7 1   
     7    7    8 1   
     8    7   15 1   
     9    8    9 1   
    10    8   11 1   
    11    8   16 1   
    12    9   10 2   
    13    9   19 1   
    14   11   12 1   
    15   11   17 1   
    16   11   18 1   
    17   12   13 1   
    18   12   14 1   
    19   19   20 1   
    20   19   27 1   
    21   20   21 1   
    22   20   23 1   
    23   20   28 1   
    24   21   22 2   
    25   21   38 1   
    26   23   24 1   
    27   23   25 1   
    28   23   29 1   
    29   24   26 1   
    30   24   30 1   
    31   24   31 1   
    32   25   32 1   
    33   25   33 1   
    34   25   34 1   
    35   26   35 1   
    36   26   36 1   
    37   26   37 1   
    38   38   39 1   
    39   38   46 1   
    40   39   40 1   
    41   39   42 1   
    42   39   47 1   
    43   40   41 2   
    44   40   50 1   
    45   42   43 1   
    46   42   48 1   
    47   42   49 1   
    48   43   44 1   
    49   43   45 1   
    50   50   51 1   
    51   50   54 1   
    52   51   52 1   
    53   51   55 1   
    54   51   56 1   
    55   52   53 2   
    56   52   57 1   
    57   57   58 1   
    58   57   65 1   
    59   58   59 1   
    60   58   61 1   
    61   58   66 1   
    62   59   60 2   
    63   59   69 1   
    64   61   62 1   
    65   61   67 1   
    66   61   68 1   
    67   62   63 1   
    68   62   64 1   
    69   69   70 1   
    70   69   73 1   
    71   70   71 1   
    72   70   74 1   
    73   70   75 1   
    74   71   72 2   
    75   71   76 1   
    76   76   77 1   
    77   76   85 1   
    78   77   78 1   
    79   77   80 1   
    80   77   86 1   
    81   78   79 2   
    82   78   93 1   
    83   80   81 1   
    84   80   87 1   
    85   80   88 1   
    86   81   82 1   
    87   81   89 1   
    88   81   90 1   
    89   82   83 1   
    90   82   84 2   
    91   83   91 1   
    92   83   92 1   
    93   93   94 1   
    94   93  100 1   
    95   94   95 1   
    96   94   97 1   
    97   94  101 1   
    98   95   96 2   
    99   95  109 1   
   100   97   98 1   
   101   97   99 1   
   102   97  102 1   
   103   98  103 1   
   104   98  104 1   
   105   98  105 1   
   106   99  106 1   
   107   99  107 1   
   108   99  108 1   
   109  109  110 1   
   110  109  117 1   
   111  110  111 1   
   112  110  113 1   
   113  110  118 1   
   114  111  112 2   
   115  111  123 1   
   116  113  114 1   
   117  113  119 1   
   118  113  120 1   
   119  114  115 1   
   120  114  116 2   
   121  115  121 1   
   122  115  122 1   
   123  123  124 1   
   124  123  135 1   
   125  124  125 1   
   126  124  127 1   
   127  124  136 1   
   128  125  126 2   
   129  125  144 1   
   130  127  128 1   
   131  127  137 1   
   132  127  138 1   
   133  128  129 ar  
   134  128  130 ar  
   135  129  131 ar  
   136  129  139 1   
   137  130  132 ar  
   138  130  140 1   
   139  131  133 ar  
   140  131  141 1   
   141  132  133 ar  
   142  132  142 1   
   143  133  134 1   
   144  134  143 1   
   145  144  145 1   
   146  144  153 1   
   147  145  146 1   
   148  145  148 1   
   149  145  154 1   
   150  146  147 2   
   151  146  159 1   
   152  148  149 1   
   153  148  155 1   
   154  148  156 1   
   155  149  150 1   
   156  149  157 1   
   157  149  158 1   
   158  150  151 1   
   159  150  152 1   
   160  159  160 1   
   161  159  168 1   
   162  160  161 1   
   163  160  163 1   
   164  160  169 1   
   165  161  162 2   
   166  161  174 1   
   167  163  164 1   
   168  163  170 1   
   169  163  171 1   
   170  164  165 1   
   171  164  172 1   
   172  164  173 1   
   173  165  166 1   
   174  165  167 1   
   175  174  175 1   
   176  174  179 1   
   177  175  176 1   
   178  175  177 1   
   179  175  178 1   
   180  181  182 1   
   181  181  183 1   
   182  184  185 1   
   183  184  186 1   
   184  187  188 1   
   185  187  189 1   
   186  190  191 1   
   187  190  192 1   
@<TRIPOS>SUBSTRUCTURE
     1 MOL         1 TEMP              0 ****  ****    0 ROOT
