@<TRIPOS>MOLECULE
MOL
  181   177     1     0     0
SMALL
resp


@<TRIPOS>ATOM
      1 C1          6.3730    3.2090    4.9820 c3        1 MOL     -0.337914
      2 C2          5.7490    2.0750    4.0730 c         1 MOL      0.597793
      3 O1          4.5270    1.8720    3.9620 o         1 MOL     -0.554905
      4 H1          5.8110    4.1330    4.8460 hc        1 MOL      0.080391
      5 H2          6.3240    2.9050    6.0270 hc        1 MOL      0.080391
      6 H3          7.4130    3.3720    4.6980 hc        1 MOL      0.080391
      7 N1          6.6200    1.3270    3.4020 n         1 MOL     -0.220431
      8 C3          8.0670    1.4650    3.2420 c3        1 MOL     -0.105850
      9 C4          8.7800    0.1240    3.1850 c         1 MOL      0.371060
     10 O2          8.3490   -0.8770    3.8270 o         1 MOL     -0.444972
     11 C5          8.3020    2.4950    2.1170 c3        1 MOL     -0.272980
     12 C6          7.5760    2.1530    0.7990 c         1 MOL      0.772089
     13 O3          6.6930    2.8680    0.3710 o         1 MOL     -0.742190
     14 O4          7.8600    1.1150    0.1540 o         1 MOL     -0.742190
     15 H4          6.1770    0.5650    2.9160 hn        1 MOL      0.170096
     16 H5          8.4720    1.9190    4.1510 h1        1 MOL      0.131000
     17 H6          9.3720    2.5750    1.8890 hc        1 MOL      0.064697
     18 H7          8.0050    3.4660    2.5040 hc        1 MOL      0.064697
     19 N2          9.8100   -0.0000    2.3700 n         1 MOL     -0.375884
     20 C7         10.4090   -1.2670    1.9420 c3        1 MOL      0.202966
     21 C8          9.3710   -2.2980    1.4290 c         1 MOL      0.449123
     22 O5          9.6820   -3.4870    1.4910 o         1 MOL     -0.528019
     23 C9         11.3620   -1.8230    2.9420 c3        1 MOL     -0.351540
     24 H8         10.0810    0.8920    1.9680 hn        1 MOL      0.272710
     25 H9         10.9550   -1.0180    1.0360 h1        1 MOL      0.024995
     26 H10        10.7620   -2.0600    3.8230 hc        1 MOL      0.097441
     27 H11        11.7630   -2.7820    2.6050 hc        1 MOL      0.097441
     28 H12        12.1780   -1.1700    3.2240 hc        1 MOL      0.097441
     29 N3          8.2280   -1.8800    0.8130 n         1 MOL     -0.246446
     30 C10         7.1190   -2.7490    0.3030 c3        1 MOL      0.064435
     31 C11         6.6990   -2.4130   -1.1920 c         1 MOL      0.347055
     32 O6          6.8800   -1.3310   -1.7300 o         1 MOL     -0.469095
     33 C12         5.9040   -2.7480    1.1980 c3        1 MOL      0.279675
     34 C13         5.4010   -1.3320    1.5270 c         1 MOL      0.516879
     35 O7          5.1930   -1.0990    2.7460 o         1 MOL     -0.594443
     36 O8          5.3820   -0.5290    0.5570 o         1 MOL     -0.594443
     37 H13         8.0460   -0.8940    0.7200 hn        1 MOL      0.102800
     38 H14         7.4110   -3.7890    0.2000 h1        1 MOL     -0.006769
     39 H15         6.0610   -3.3100    2.1120 hc        1 MOL     -0.083857
     40 H16         5.0570   -3.2430    0.7180 hc        1 MOL     -0.083857
     41 N4          6.3840   -3.4960   -1.9370 n         1 MOL     -0.210380
     42 C14         5.8230   -3.3850   -3.2590 c3        1 MOL     -0.634991
     43 C15         4.4120   -2.9220   -3.4930 c         1 MOL      0.541740
     44 O9          3.9710   -2.9690   -4.6760 o         1 MOL     -0.535633
     45 H17         6.2640   -4.4350   -1.5980 hn        1 MOL      0.278527
     46 H18         5.6980   -4.4280   -3.5320 h1        1 MOL      0.241797
     47 H19         6.4590   -2.7720   -3.9000 h1        1 MOL      0.241797
     48 N5          3.6470   -2.7120   -2.3840 n         1 MOL     -0.240317
     49 C16         2.3730   -2.0270   -2.3780 c3        1 MOL     -0.301053
     50 C17         2.4620   -0.4920   -2.2890 c         1 MOL      0.775929
     51 O10         3.4130   -0.0050   -1.6870 o         1 MOL     -0.727023
     52 C18         1.5340   -2.5530   -1.1810 c3        1 MOL      0.061492
     53 C19         1.3170   -4.0540   -1.0160 c         1 MOL      0.599333
     54 N6          1.2100   -4.4150    0.2340 n         1 MOL     -0.768444
     55 O11         1.3080   -4.8030   -1.9330 o         1 MOL     -0.517119
     56 H20         4.1190   -2.9310   -1.5210 hn        1 MOL      0.274994
     57 H21         1.9110   -2.3340   -3.3200 h1        1 MOL      0.121688
     58 H22         0.5540   -2.0690   -1.3210 hc        1 MOL      0.008731
     59 H23         1.9300   -2.1040   -0.2760 hc        1 MOL      0.008731
     60 H24         1.3050   -3.7990    1.0360 hn        1 MOL      0.364509
     61 H25         1.0600   -5.3740    0.5040 hn        1 MOL      0.364509
     62 N7          1.5110    0.1920   -2.8730 n         1 MOL     -0.497971
     63 C20         1.3600    1.5970   -2.6570 c3        1 MOL      0.061400
     64 C21         0.6010    2.3130   -3.6950 c         1 MOL      0.714597
     65 O12         0.5950    1.8760   -4.8160 o         1 MOL     -0.603332
     66 H26         0.8900   -0.3140   -3.4820 hn        1 MOL      0.313878
     67 H27         2.3000    2.1410   -2.5940 h1        1 MOL      0.063554
     68 H28         0.7630    1.5840   -1.7380 h1        1 MOL      0.063554
     69 N8          0.0010    3.4500   -3.4590 n         1 MOL     -0.670870
     70 C22        -0.2740    4.0670   -2.1210 c3        1 MOL      0.060955
     71 C23        -1.5070    3.5490   -1.4540 c         1 MOL      0.456644
     72 O13        -2.5670    3.5230   -2.0580 o         1 MOL     -0.532045
     73 C24        -0.5970    5.5580   -2.3190 c3        1 MOL      0.424072
     74 C25        -0.6050    6.3070   -1.0140 c3        1 MOL     -0.233603
     75 O14         0.3690    5.9960   -3.2570 oh        1 MOL     -0.663596
     76 H29        -0.5870    3.7880   -4.2060 hn        1 MOL      0.351406
     77 H30         0.5440    4.0650   -1.3900 h1        1 MOL      0.038272
     78 H31        -1.5670    5.6150   -2.8160 h1        1 MOL     -0.015715
     79 H32         0.1090    5.7370   -4.1380 ho        1 MOL      0.389582
     80 H33        -0.9570    7.3220   -1.2390 hc        1 MOL      0.068803
     81 H34        -1.3170    5.8600   -0.3150 hc        1 MOL      0.068803
     82 H35         0.4010    6.3050   -0.5980 hc        1 MOL      0.068803
     83 N9         -1.4350    3.1450   -0.2030 n         1 MOL     -0.194949
     84 C26        -2.4990    2.8480    0.7170 c3        1 MOL     -0.012145
     85 C27        -3.1000    4.0810    1.3610 c         1 MOL      0.678140
     86 O15        -2.4040    4.6510    2.1500 o         1 MOL     -0.614766
     87 C28        -2.0910    1.6970    1.6950 c3        1 MOL      0.119519
     88 C29        -1.5220    0.4680    1.1410 c3        1 MOL     -0.008880
     89 C30        -3.1700    1.3250    2.7000 c3        1 MOL     -0.169154
     90 C31        -2.1470   -0.2410   -0.0550 c3        1 MOL     -0.102316
     91 H36        -0.5130    3.3550    0.1700 hn        1 MOL      0.139778
     92 H37        -3.3330    2.4360    0.1460 h1        1 MOL      0.002986
     93 H38        -1.3320    2.1220    2.3580 hc        1 MOL     -0.008000
     94 H39        -1.3800   -0.3410    1.8620 hc        1 MOL     -0.012730
     95 H40        -0.5190    0.7260    0.7910 hc        1 MOL     -0.012730
     96 H41        -3.7040    0.4390    2.3290 hc        1 MOL      0.040578
     97 H42        -2.6970    1.0160    3.6280 hc        1 MOL      0.040578
     98 H43        -3.9380    2.0750    2.8770 hc        1 MOL      0.040578
     99 H44        -1.5850    0.1890   -0.8820 hc        1 MOL      0.018901
    100 H45        -1.8880   -1.2910    0.0430 hc        1 MOL      0.018901
    101 H46        -3.2220   -0.0900   -0.0840 hc        1 MOL      0.018901
    102 N10        -4.3100    4.6030    1.0760 n         1 MOL     -0.569127
    103 C32        -5.3340    4.0670    0.1200 c3        1 MOL      0.191910
    104 C33        -6.1740    2.9470    0.8000 c         1 MOL      0.634350
    105 O16        -6.3600    2.9050    2.0090 o         1 MOL     -0.506047
    106 C34        -6.3630    5.1820   -0.2700 c3        1 MOL     -0.221209
    107 C35        -6.8630    6.2360    0.7780 c         1 MOL      0.713043
    108 O17        -7.9710    6.7520    0.5670 o         1 MOL     -0.704413
    109 O18        -6.1780    6.4880    1.7970 o         1 MOL     -0.704413
    110 H47        -4.6220    5.3330    1.6930 hn        1 MOL      0.313836
    111 H48        -4.8190    3.6680   -0.7550 h1        1 MOL      0.001014
    112 H49        -7.2680    4.6340   -0.5530 hc        1 MOL      0.026490
    113 H50        -6.0590    5.6970   -1.1800 hc        1 MOL      0.026490
    114 N11        -6.9170    2.1800   -0.0680 n         1 MOL     -0.515565
    115 C36        -7.5220    0.8360    0.2840 c3        1 MOL      0.056364
    116 C37        -7.9400    0.0490   -1.0080 c         1 MOL      0.494587
    117 O19        -8.4050    0.7600   -1.9170 o         1 MOL     -0.531078
    118 C38        -8.8140    1.0040    1.1900 c3        1 MOL     -0.237930
    119 C39        -9.4170   -0.3620    1.5610 ca        1 MOL     -0.031867
    120 C40       -10.3830   -0.9510    0.6910 ca        1 MOL     -0.081057
    121 C41        -9.1480   -0.9420    2.7900 ca        1 MOL     -0.081057
    122 C42       -11.0400   -2.1000    1.1000 ca        1 MOL     -0.178835
    123 C43        -9.7840   -2.0800    3.1940 ca        1 MOL     -0.178835
    124 C44       -10.6840   -2.6900    2.3360 ca        1 MOL     -0.027828
    125 H51        -6.8000    2.3840   -1.0490 hn        1 MOL      0.278984
    126 H52        -6.7980    0.2040    0.8050 h1        1 MOL      0.045552
    127 H53        -9.5220    1.6310    0.6430 hc        1 MOL      0.127581
    128 H54        -8.4200    1.5090    2.0690 hc        1 MOL      0.127581
    129 H55       -10.7130   -0.4640   -0.2120 ha        1 MOL      0.120834
    130 H56        -8.4620   -0.4680    3.4760 ha        1 MOL      0.120834
    131 H57       -11.7300   -2.6170    0.4410 ha        1 MOL      0.108893
    132 H58        -9.4880   -2.5770    4.1050 ha        1 MOL      0.108893
    133 H59       -11.2910   -3.4940    2.7360 ha        1 MOL      0.069135
    134 N12        -7.8950   -1.3030   -1.1590 n         1 MOL     -0.315157
    135 C45        -7.4100   -2.3340   -0.1870 c3        1 MOL      0.613942
    136 C46        -5.9700   -2.4070    0.0640 c         1 MOL      0.312059
    137 O20        -5.3030   -1.4220   -0.2950 o         1 MOL     -0.551312
    138 C47        -7.9600   -3.5920   -0.8430 c3        1 MOL     -0.027236
    139 C48        -9.2190   -3.2800   -1.6890 c3        1 MOL      0.061822
    140 C49        -8.7900   -1.9200   -2.1710 c3        1 MOL     -0.111412
    141 H60        -7.9220   -2.2320    0.7660 h1        1 MOL     -0.103249
    142 H61        -7.1970   -4.0460   -1.4700 hc        1 MOL     -0.015187
    143 H62        -8.2440   -4.2830   -0.0440 hc        1 MOL     -0.015187
    144 H63        -9.4090   -3.9760   -2.5140 hc        1 MOL     -0.009696
    145 H64       -10.0160   -3.2550   -0.9500 hc        1 MOL     -0.009696
    146 H65        -8.1970   -2.1260   -3.0570 h1        1 MOL      0.085435
    147 H66        -9.6860   -1.3410   -2.3820 h1        1 MOL      0.085435
    148 N13        -5.3630   -3.4550    0.6760 n         1 MOL     -0.360490
    149 C50        -3.8770   -3.5370    0.9410 c3        1 MOL      0.164428
    150 C51        -3.4180   -4.2830    2.2250 c         1 MOL      0.394152
    151 O21        -2.4010   -4.8940    2.2180 o         1 MOL     -0.503776
    152 C52        -3.1170   -3.9250   -0.4030 c3        1 MOL     -0.191123
    153 C53        -3.2740   -5.4300   -0.7340 c3        1 MOL     -0.083924
    154 C54        -4.6630   -5.8130   -1.2710 c         1 MOL      0.785056
    155 O22        -5.3850   -6.5370   -0.5640 o         1 MOL     -0.758696
    156 O23        -5.0480   -5.5370   -2.3980 o         1 MOL     -0.758696
    157 H67        -5.9580   -4.1280    1.1420 hn        1 MOL      0.217947
    158 H68        -3.6320   -2.5110    1.2080 h1        1 MOL      0.127164
    159 H69        -2.0720   -3.6310   -0.2980 hc        1 MOL      0.080871
    160 H70        -3.4830   -3.3470   -1.2520 hc        1 MOL      0.080871
    161 H71        -2.9620   -6.0820    0.0780 hc        1 MOL     -0.003781
    162 H72        -2.6140   -5.6820   -1.5590 hc        1 MOL     -0.003781
    163 N14        -4.0710   -4.0800    3.3890 n         1 MOL     -0.388565
    164 C55        -5.1340   -3.0970    3.8350 c3        1 MOL      0.014147
    165 H73        -5.6640   -2.7140    2.9630 h1        1 MOL      0.032508
    166 H74        -5.8400   -3.5990    4.4960 h1        1 MOL      0.032508
    167 H75        -4.6640   -2.2690    4.3660 h1        1 MOL      0.032508
    168 H76        -3.8120   -4.6940    4.1440 hn        1 MOL      0.274303
    169 Ca1         5.7720    1.1620   -1.4980 Ca        1 MOL      1.764435
    170 O24         5.3140   -0.0170   -3.9130 oh        1 MOL     -0.818637
    171 O25         7.7310    2.3440   -2.9160 oh        1 MOL     -0.818637
    172 H77         4.5210   -0.1550   -4.4220 ho        1 MOL      0.407479
    173 H78         7.9530    3.1420   -3.3970 ho        1 MOL      0.407479
    174 H79         6.0080   -0.4080   -4.4360 ho        1 MOL      0.407479
    175 H80         8.4060    1.7180   -3.1830 ho        1 MOL      0.407479
    176 O26         3.9330    2.7210   -0.2240 oh        1 MOL     -0.818637
    177 H81         3.1030    3.1750   -0.0380 ho        1 MOL      0.407479
    178 H82         4.5010    2.9800    0.5000 ho        1 MOL      0.407479
    179 O27         4.5520    2.8550   -3.0490 oh        1 MOL     -0.818637
    180 H83         4.2480    3.7540   -2.9760 ho        1 MOL      0.407479
    181 H84         4.6320    2.7030   -3.9880 ho        1 MOL      0.407479
@<TRIPOS>BOND
     1    1    2 1   
     2    1    4 1   
     3    1    5 1   
     4    1    6 1   
     5    2    3 2   
     6    2    7 1   
     7    7    8 1   
     8    7   15 1   
     9    8    9 1   
    10    8   11 1   
    11    8   16 1   
    12    9   10 2   
    13    9   19 1   
    14   11   12 1   
    15   11   17 1   
    16   11   18 1   
    17   12   13 1   
    18   12   14 1   
    19   19   20 1   
    20   19   24 1   
    21   20   21 1   
    22   20   23 1   
    23   20   25 1   
    24   21   22 2   
    25   21   29 1   
    26   23   26 1   
    27   23   27 1   
    28   23   28 1   
    29   29   30 1   
    30   29   37 1   
    31   30   31 1   
    32   30   33 1   
    33   30   38 1   
    34   31   32 2   
    35   31   41 1   
    36   33   34 1   
    37   33   39 1   
    38   33   40 1   
    39   34   35 1   
    40   34   36 1   
    41   41   42 1   
    42   41   45 1   
    43   42   43 1   
    44   42   46 1   
    45   42   47 1   
    46   43   44 2   
    47   43   48 1   
    48   48   49 1   
    49   48   56 1   
    50   49   50 1   
    51   49   52 1   
    52   49   57 1   
    53   50   51 2   
    54   50   62 1   
    55   52   53 1   
    56   52   58 1   
    57   52   59 1   
    58   53   54 1   
    59   53   55 2   
    60   54   60 1   
    61   54   61 1   
    62   62   63 1   
    63   62   66 1   
    64   63   64 1   
    65   63   67 1   
    66   63   68 1   
    67   64   65 2   
    68   64   69 1   
    69   69   70 1   
    70   69   76 1   
    71   70   71 1   
    72   70   73 1   
    73   70   77 1   
    74   71   72 2   
    75   71   83 1   
    76   73   74 1   
    77   73   75 1   
    78   73   78 1   
    79   74   80 1   
    80   74   81 1   
    81   74   82 1   
    82   75   79 1   
    83   83   84 1   
    84   83   91 1   
    85   84   85 1   
    86   84   87 1   
    87   84   92 1   
    88   85   86 2   
    89   85  102 1   
    90   87   88 1   
    91   87   89 1   
    92   87   93 1   
    93   88   90 1   
    94   88   94 1   
    95   88   95 1   
    96   89   96 1   
    97   89   97 1   
    98   89   98 1   
    99   90   99 1   
   100   90  100 1   
   101   90  101 1   
   102  102  103 1   
   103  102  110 1   
   104  103  104 1   
   105  103  106 1   
   106  103  111 1   
   107  104  105 2   
   108  104  114 1   
   109  106  107 1   
   110  106  112 1   
   111  106  113 1   
   112  107  108 1   
   113  107  109 1   
   114  114  115 1   
   115  114  125 1   
   116  115  116 1   
   117  115  118 1   
   118  115  126 1   
   119  116  117 2   
   120  116  134 1   
   121  118  119 1   
   122  118  127 1   
   123  118  128 1   
   124  119  120 ar  
   125  119  121 ar  
   126  120  122 ar  
   127  120  129 1   
   128  121  123 ar  
   129  121  130 1   
   130  122  124 ar  
   131  122  131 1   
   132  123  124 ar  
   133  123  132 1   
   134  124  133 1   
   135  134  135 1   
   136  134  140 1   
   137  135  136 1   
   138  135  138 1   
   139  135  141 1   
   140  136  137 2   
   141  136  148 1   
   142  138  139 1   
   143  138  142 1   
   144  138  143 1   
   145  139  140 1   
   146  139  144 1   
   147  139  145 1   
   148  140  146 1   
   149  140  147 1   
   150  148  149 1   
   151  148  157 1   
   152  149  150 1   
   153  149  152 1   
   154  149  158 1   
   155  150  151 2   
   156  150  163 1   
   157  152  153 1   
   158  152  159 1   
   159  152  160 1   
   160  153  154 1   
   161  153  161 1   
   162  153  162 1   
   163  154  155 1   
   164  154  156 1   
   165  163  164 1   
   166  163  168 1   
   167  164  165 1   
   168  164  166 1   
   169  164  167 1   
   170  170  172 1   
   171  170  174 1   
   172  171  173 1   
   173  171  175 1   
   174  176  177 1   
   175  176  178 1   
   176  179  180 1   
   177  179  181 1   
@<TRIPOS>SUBSTRUCTURE
     1 MOL         1 TEMP              0 ****  ****    0 ROOT
