@<TRIPOS>MOLECULE
MOL
  195   189     1     0     0
SMALL
resp


@<TRIPOS>ATOM
      1 C1          1.4060    3.0040    3.4870 c3        1 MOL     -0.361610
      2 C2          0.4470    3.3370    2.3060 c         1 MOL      0.578684
      3 O1         -0.6110    2.6840    2.1950 o         1 MOL     -0.493107
      4 H1          0.8270    2.6190    4.3270 hc        1 MOL      0.078884
      5 H2          2.1270    2.2520    3.1690 hc        1 MOL      0.078884
      6 H3          1.9340    3.9070    3.7930 hc        1 MOL      0.078884
      7 N1          0.6340    4.4950    1.6930 n         1 MOL     -0.365501
      8 C3          0.1540    4.8940    0.3850 c3        1 MOL     -0.058939
      9 C4         -1.3630    4.9260    0.2100 c         1 MOL      0.759166
     10 O2         -1.9550    4.5330   -0.7830 o         1 MOL     -0.580286
     11 C5          0.9810    4.1800   -0.6610 c3        1 MOL     -0.390629
     12 C6          2.4790    4.4200   -0.5920 c         1 MOL      0.985603
     13 O3          2.8400    5.4710   -0.0300 o         1 MOL     -0.767513
     14 O4          3.2590    3.5710   -1.0010 o         1 MOL     -0.767513
     15 H4          1.4180    5.0840    1.9520 hn        1 MOL      0.199253
     16 H5          0.4530    5.9470    0.3070 h1        1 MOL      0.105981
     17 H6          0.6340    4.4720   -1.6580 hc        1 MOL      0.131922
     18 H7          0.7670    3.1240   -0.4970 hc        1 MOL      0.131922
     19 N2         -2.0470    5.3810    1.2770 n         1 MOL     -0.747137
     20 C7         -3.5340    5.3960    1.3610 c3        1 MOL     -0.008287
     21 C8         -4.2450    6.4370    0.4550 c         1 MOL      0.634108
     22 O5         -3.6360    7.3680    0.0860 o         1 MOL     -0.561418
     23 C9         -3.9700    5.5790    2.8330 c3        1 MOL      0.075510
     24 C10        -3.5720    6.8810    3.5610 c3        1 MOL      0.108801
     25 C11        -3.4330    4.4040    3.6720 c3        1 MOL     -0.397410
     26 C12        -4.2980    7.0650    4.8930 c3        1 MOL     -0.181357
     27 H8         -1.4600    5.4660    2.1000 hn        1 MOL      0.334543
     28 H9         -3.8500    4.4090    1.0080 h1        1 MOL      0.189307
     29 H10        -5.0560    5.6120    2.7210 hc        1 MOL      0.072846
     30 H11        -3.8420    7.7320    2.9380 hc        1 MOL     -0.011481
     31 H12        -2.4990    6.7830    3.7240 hc        1 MOL     -0.011481
     32 H13        -3.6100    3.5200    3.0700 hc        1 MOL      0.102440
     33 H14        -2.3690    4.4820    3.9360 hc        1 MOL      0.102440
     34 H15        -3.9640    4.3870    4.6270 hc        1 MOL      0.102440
     35 H16        -5.3810    6.9730    4.8420 hc        1 MOL      0.034792
     36 H17        -3.9030    6.3680    5.6260 hc        1 MOL      0.034792
     37 H18        -4.1400    8.0840    5.2700 hc        1 MOL      0.034792
     38 N3         -5.5490    6.2850    0.1330 n         1 MOL     -0.489552
     39 C13        -6.4620    5.0850    0.2090 c3        1 MOL     -0.035304
     40 C14        -6.0490    3.8210   -0.5520 c         1 MOL      0.515827
     41 O6         -6.3640    2.6990   -0.1350 o         1 MOL     -0.521931
     42 C15        -7.9070    5.4770   -0.0980 c3        1 MOL     -0.040983
     43 C16        -8.3010    6.7270    0.5840 c         1 MOL      0.704331
     44 O7         -7.9590    7.8680    0.1360 o         1 MOL     -0.716469
     45 O8         -9.1710    6.6940    1.5100 o         1 MOL     -0.716469
     46 H19        -5.9740    7.0940   -0.2850 hn        1 MOL      0.253966
     47 H20        -6.5030    4.7590    1.2540 h1        1 MOL      0.025480
     48 H21        -8.5570    4.6690    0.2370 hc        1 MOL      0.011502
     49 H22        -8.0420    5.6460   -1.1670 hc        1 MOL      0.011502
     50 N4         -5.3670    3.9390   -1.7480 n         1 MOL     -0.349388
     51 C17        -4.6230    2.8010   -2.3210 c3        1 MOL     -0.386752
     52 C18        -5.4230    1.6610   -3.0140 c         1 MOL      0.703264
     53 O9         -6.5230    1.9520   -3.3960 o         1 MOL     -0.547513
     54 H23        -5.1620    4.8680   -2.0890 hn        1 MOL      0.305272
     55 H24        -3.8920    2.3900   -1.6350 h1        1 MOL      0.159310
     56 H25        -4.1470    3.2100   -3.2150 h1        1 MOL      0.159310
     57 N5         -4.9010    0.4140   -3.0900 n         1 MOL     -0.667972
     58 C19        -5.6920   -0.8360   -3.4310 c3        1 MOL      0.298487
     59 C20        -6.3850   -1.5590   -2.2870 c         1 MOL      0.426123
     60 O10        -7.3140   -2.3360   -2.4650 o         1 MOL     -0.562556
     61 C21        -4.7350   -1.6990   -4.1760 c3        1 MOL     -0.191692
     62 C22        -3.4670   -2.1350   -3.3760 c         1 MOL      0.605445
     63 O11        -2.4860   -1.3790   -3.3950 o         1 MOL     -0.652917
     64 O12        -3.6150   -2.9660   -2.3780 o         1 MOL     -0.652917
     65 H26        -4.0200    0.1850   -2.6600 hn        1 MOL      0.352141
     66 H27        -6.5250   -0.6180   -4.0930 h1        1 MOL      0.020925
     67 H28        -4.3850   -1.1560   -5.0570 hc        1 MOL      0.017138
     68 H29        -5.2830   -2.6060   -4.4000 hc        1 MOL      0.017138
     69 N6         -5.9010   -1.4030   -1.0610 n         1 MOL     -0.155953
     70 C23        -6.4960   -1.9770    0.1140 c3        1 MOL     -0.271710
     71 C24        -6.3710   -3.5060    0.2110 c         1 MOL      0.592110
     72 O13        -7.1000   -4.0740    1.0770 o         1 MOL     -0.600296
     73 H30        -5.1390   -0.7530   -0.9820 hn        1 MOL      0.226502
     74 H31        -7.5630   -1.7370    0.1050 h1        1 MOL      0.131796
     75 H32        -6.1040   -1.5940    1.0560 h1        1 MOL      0.131796
     76 N7         -5.4580   -4.2040   -0.5500 n         1 MOL     -0.256177
     77 C25        -5.0050   -5.6080   -0.3770 c3        1 MOL     -0.022179
     78 C26        -4.5050   -6.0690    0.9650 c         1 MOL      0.532699
     79 O14        -4.6440   -7.2190    1.3670 o         1 MOL     -0.512128
     80 C27        -6.0350   -6.5310   -1.1210 c3        1 MOL      0.042946
     81 C28        -6.1490   -6.2530   -2.6040 c3        1 MOL     -0.095202
     82 C29        -6.9720   -7.2080   -3.3580 c         1 MOL      0.626251
     83 N8         -7.8900   -6.8320   -4.1990 n         1 MOL     -0.747027
     84 O15        -6.8550   -8.4150   -3.2090 o         1 MOL     -0.582171
     85 H33        -5.0080   -3.6830   -1.2820 hn        1 MOL      0.112918
     86 H34        -4.1110   -5.7290   -0.9980 h1        1 MOL      0.101611
     87 H35        -7.0440   -6.5330   -0.7170 hc        1 MOL      0.015497
     88 H36        -5.6890   -7.5620   -1.0660 hc        1 MOL      0.015497
     89 H37        -5.2190   -6.1600   -3.1710 hc        1 MOL      0.034693
     90 H38        -6.5710   -5.2560   -2.7600 hc        1 MOL      0.034693
     91 H39        -8.0470   -5.8660   -4.4380 hn        1 MOL      0.332549
     92 H40        -8.4830   -7.4610   -4.7200 hn        1 MOL      0.332549
     93 N9         -3.8970   -5.1030    1.7260 n         1 MOL     -0.423576
     94 C30        -3.3280   -5.3550    3.1170 c3        1 MOL     -0.092683
     95 C31        -1.8670   -4.8280    3.3360 c         1 MOL      0.559429
     96 O16        -1.3910   -4.8160    4.4410 o         1 MOL     -0.556119
     97 C32        -4.1840   -4.7590    4.1970 c3        1 MOL      0.275066
     98 C33        -4.4080   -3.2210    4.2410 c3        1 MOL     -0.328166
     99 C34        -5.5650   -5.4720    4.3330 c3        1 MOL     -0.328166
    100 H41        -3.9050   -4.1350    1.4260 hn        1 MOL      0.251279
    101 H42        -3.2730   -6.4340    3.1780 h1        1 MOL      0.114629
    102 H43        -3.6770   -4.9530    5.1460 hc        1 MOL     -0.024634
    103 H44        -4.8960   -2.8470    5.1380 hc        1 MOL      0.079951
    104 H45        -3.4630   -2.6800    4.2010 hc        1 MOL      0.079951
    105 H46        -4.9490   -2.8810    3.3490 hc        1 MOL      0.079951
    106 H47        -6.2710   -5.1470    3.5620 hc        1 MOL      0.079951
    107 H48        -5.5270   -6.5590    4.3290 hc        1 MOL      0.079951
    108 H49        -5.9490   -5.0800    5.2680 hc        1 MOL      0.079951
    109 N10        -1.1780   -4.4520    2.2680 n         1 MOL     -0.486040
    110 C35         0.1170   -3.7680    2.2810 c3        1 MOL      0.350345
    111 C36         1.1460   -4.3350    1.2170 c         1 MOL      0.411380
    112 O17         1.0900   -5.5090    0.9160 o         1 MOL     -0.510346
    113 C37        -0.1790   -2.2030    2.2890 c3        1 MOL     -0.343794
    114 C38         1.0200   -1.3840    2.6620 c         1 MOL      0.584271
    115 N11         1.5730   -1.5170    3.8530 n         1 MOL     -0.781121
    116 O18         1.5310   -0.6330    1.8400 o         1 MOL     -0.467086
    117 H50        -1.5420   -4.5820    1.3320 hn        1 MOL      0.265477
    118 H51         0.6390   -3.9710    3.2140 h1        1 MOL      0.012278
    119 H52        -0.9520   -1.8900    2.9960 hc        1 MOL      0.117511
    120 H53        -0.5230   -2.0250    1.2750 hc        1 MOL      0.117511
    121 H54         1.1180   -1.9740    4.6360 hn        1 MOL      0.370857
    122 H55         2.3890   -0.9350    3.9930 hn        1 MOL      0.370857
    123 N12         2.0010   -3.4830    0.6240 n         1 MOL     -0.360002
    124 C39         2.9770   -3.8770   -0.4160 c3        1 MOL      0.223358
    125 C40         4.4050   -3.3360   -0.0910 c         1 MOL      0.417468
    126 O19         4.6340   -2.4510    0.7800 o         1 MOL     -0.563082
    127 C41         2.4680   -3.4050   -1.8170 c3        1 MOL     -0.256172
    128 C42         2.7330   -2.0310   -2.2330 ca        1 MOL      0.083886
    129 C43         2.1190   -1.0130   -1.5270 ca        1 MOL     -0.126541
    130 C44         3.5780   -1.6810   -3.2690 ca        1 MOL     -0.126541
    131 C45         2.3670    0.3520   -1.8280 ca        1 MOL     -0.320127
    132 C46         3.8280   -0.3030   -3.5700 ca        1 MOL     -0.320127
    133 C47         3.2100    0.7440   -2.8450 ca        1 MOL      0.507446
    134 O20         3.4390    2.0220   -3.0750 oh        1 MOL     -0.627497
    135 H56         2.0650   -2.5080    0.8680 hn        1 MOL      0.210527
    136 H57         3.1170   -4.9600   -0.4140 h1        1 MOL      0.050249
    137 H58         1.3930   -3.5870   -1.8180 hc        1 MOL      0.086864
    138 H59         2.9230   -4.1050   -2.5200 hc        1 MOL      0.086864
    139 H60         1.3990   -1.2410   -0.7680 ha        1 MOL      0.109525
    140 H61         4.0150   -2.4690   -3.8680 ha        1 MOL      0.109525
    141 H62         1.8210    1.1770   -1.3840 ha        1 MOL      0.132464
    142 H63         4.5670   -0.0000   -4.2900 ha        1 MOL      0.132464
    143 H64         3.3060    2.6190   -2.3360 ho        1 MOL      0.404291
    144 N13         5.4290   -3.8890   -0.7800 n         1 MOL     -0.473355
    145 C48         6.8970   -3.8030   -0.3440 c3        1 MOL      0.066474
    146 C49         7.7710   -3.1490   -1.4100 c         1 MOL      0.507456
    147 O21         8.2580   -3.7790   -2.3330 o         1 MOL     -0.560484
    148 C50         7.4350   -5.2410    0.1150 c3        1 MOL     -0.005384
    149 C51         6.6030   -5.7650    1.3070 c3        1 MOL     -0.282264
    150 C52         6.9610   -7.1550    1.8110 c         1 MOL      0.737831
    151 O22         7.0810   -7.3850    3.0190 o         1 MOL     -0.703729
    152 O23         7.0200   -8.0720    0.9580 o         1 MOL     -0.703729
    153 H65         5.2360   -4.4090   -1.6220 hn        1 MOL      0.327592
    154 H66         7.0130   -3.3060    0.6170 h1        1 MOL      0.148720
    155 H67         8.5010   -5.1980    0.3480 hc        1 MOL      0.024372
    156 H68         7.4170   -5.9620   -0.7040 hc        1 MOL      0.024372
    157 H69         5.5640   -5.8370    0.9770 hc        1 MOL      0.065563
    158 H70         6.7900   -5.0050    2.0720 hc        1 MOL      0.065563
    159 N14         7.9460   -1.8460   -1.3550 n         1 MOL     -0.453560
    160 C53         7.4550   -0.8210   -0.4250 c3        1 MOL     -0.305040
    161 C54         8.0470   -0.9770    0.9860 c         1 MOL      0.664428
    162 O24         9.1100   -1.5670    1.1370 o         1 MOL     -0.549486
    163 C55         7.8060    0.5650   -0.9320 c3        1 MOL      0.334062
    164 C56         6.9660    1.0500   -2.1050 c3        1 MOL     -0.034115
    165 C57         7.3030    2.4860   -2.3990 c         1 MOL      0.588187
    166 O25         6.6500    3.4170   -1.8430 o         1 MOL     -0.682972
    167 O26         8.1950    2.6770   -3.2300 o         1 MOL     -0.682972
    168 H71         8.6390   -1.5170   -2.0200 hn        1 MOL      0.314964
    169 H72         6.3710   -0.8500   -0.4340 h1        1 MOL      0.177917
    170 H73         8.8480    0.6140   -1.2210 hc        1 MOL     -0.094187
    171 H74         7.6000    1.2340   -0.0970 hc        1 MOL     -0.094187
    172 H75         5.9220    0.8540   -1.8790 hc        1 MOL      0.007801
    173 H76         7.2360    0.4290   -2.9550 hc        1 MOL      0.007801
    174 N15         7.3370   -0.4730    1.9940 n         1 MOL     -0.421447
    175 C58         7.6130   -0.7330    3.4780 c3        1 MOL     -0.368078
    176 H77         6.6810   -0.9890    3.9800 h1        1 MOL      0.147456
    177 H78         8.3180   -1.5580    3.5780 h1        1 MOL      0.147456
    178 H79         8.0360    0.1630    3.9320 h1        1 MOL      0.147456
    179 H80         6.3550   -0.3730    1.7740 hn        1 MOL      0.292245
    180 Ca1         5.4210    5.0530   -0.3750 Ca        1 MOL      1.652538
    181 O27         4.1690    6.2530   -2.6010 oh        1 MOL     -0.835881
    182 H81         3.5360    5.9730   -3.2520 ho        1 MOL      0.402210
    183 H82         4.9390    6.5120   -3.1050 ho        1 MOL      0.402210
    184 O28         7.6270    5.3910    0.9070 oh        1 MOL     -0.835881
    185 H83         8.5140    5.4600    0.5650 ho        1 MOL      0.402210
    186 H84         7.7050    5.5950    1.8370 ho        1 MOL      0.402210
    187 O29         5.3600    7.7660   -0.1560 oh        1 MOL     -0.835881
    188 H85         6.1050    8.2710    0.1850 ho        1 MOL      0.402210
    189 H86         4.7960    8.4170   -0.5590 ho        1 MOL      0.402210
    190 O30         5.3540    2.7410    0.9410 oh        1 MOL     -0.835881
    191 H87         5.8150    2.5460    1.7570 ho        1 MOL      0.402210
    192 H88         4.7350    2.0120    0.8330 ho        1 MOL      0.402210
    193 O31         7.1970    6.2500   -2.2340 oh        1 MOL     -0.835881
    194 H89         7.2460    6.9730   -2.8550 ho        1 MOL      0.402210
    195 H90         7.9630    5.7090   -2.4380 ho        1 MOL      0.402210
@<TRIPOS>BOND
     1    1    2 1   
     2    1    4 1   
     3    1    5 1   
     4    1    6 1   
     5    2    3 2   
     6    2    7 1   
     7    7    8 1   
     8    7   15 1   
     9    8    9 1   
    10    8   11 1   
    11    8   16 1   
    12    9   10 2   
    13    9   19 1   
    14   11   12 1   
    15   11   17 1   
    16   11   18 1   
    17   12   13 1   
    18   12   14 1   
    19   19   20 1   
    20   19   27 1   
    21   20   21 1   
    22   20   23 1   
    23   20   28 1   
    24   21   22 2   
    25   21   38 1   
    26   23   24 1   
    27   23   25 1   
    28   23   29 1   
    29   24   26 1   
    30   24   30 1   
    31   24   31 1   
    32   25   32 1   
    33   25   33 1   
    34   25   34 1   
    35   26   35 1   
    36   26   36 1   
    37   26   37 1   
    38   38   39 1   
    39   38   46 1   
    40   39   40 1   
    41   39   42 1   
    42   39   47 1   
    43   40   41 2   
    44   40   50 1   
    45   42   43 1   
    46   42   48 1   
    47   42   49 1   
    48   43   44 1   
    49   43   45 1   
    50   50   51 1   
    51   50   54 1   
    52   51   52 1   
    53   51   55 1   
    54   51   56 1   
    55   52   53 2   
    56   52   57 1   
    57   57   58 1   
    58   57   65 1   
    59   58   59 1   
    60   58   61 1   
    61   58   66 1   
    62   59   60 2   
    63   59   69 1   
    64   61   62 1   
    65   61   67 1   
    66   61   68 1   
    67   62   63 1   
    68   62   64 1   
    69   69   70 1   
    70   69   73 1   
    71   70   71 1   
    72   70   74 1   
    73   70   75 1   
    74   71   72 2   
    75   71   76 1   
    76   76   77 1   
    77   76   85 1   
    78   77   78 1   
    79   77   80 1   
    80   77   86 1   
    81   78   79 2   
    82   78   93 1   
    83   80   81 1   
    84   80   87 1   
    85   80   88 1   
    86   81   82 1   
    87   81   89 1   
    88   81   90 1   
    89   82   83 1   
    90   82   84 2   
    91   83   91 1   
    92   83   92 1   
    93   93   94 1   
    94   93  100 1   
    95   94   95 1   
    96   94   97 1   
    97   94  101 1   
    98   95   96 2   
    99   95  109 1   
   100   97   98 1   
   101   97   99 1   
   102   97  102 1   
   103   98  103 1   
   104   98  104 1   
   105   98  105 1   
   106   99  106 1   
   107   99  107 1   
   108   99  108 1   
   109  109  110 1   
   110  109  117 1   
   111  110  111 1   
   112  110  113 1   
   113  110  118 1   
   114  111  112 2   
   115  111  123 1   
   116  113  114 1   
   117  113  119 1   
   118  113  120 1   
   119  114  115 1   
   120  114  116 2   
   121  115  121 1   
   122  115  122 1   
   123  123  124 1   
   124  123  135 1   
   125  124  125 1   
   126  124  127 1   
   127  124  136 1   
   128  125  126 2   
   129  125  144 1   
   130  127  128 1   
   131  127  137 1   
   132  127  138 1   
   133  128  129 ar  
   134  128  130 ar  
   135  129  131 ar  
   136  129  139 1   
   137  130  132 ar  
   138  130  140 1   
   139  131  133 ar  
   140  131  141 1   
   141  132  133 ar  
   142  132  142 1   
   143  133  134 1   
   144  134  143 1   
   145  144  145 1   
   146  144  153 1   
   147  145  146 1   
   148  145  148 1   
   149  145  154 1   
   150  146  147 2   
   151  146  159 1   
   152  148  149 1   
   153  148  155 1   
   154  148  156 1   
   155  149  150 1   
   156  149  157 1   
   157  149  158 1   
   158  150  151 1   
   159  150  152 1   
   160  159  160 1   
   161  159  168 1   
   162  160  161 1   
   163  160  163 1   
   164  160  169 1   
   165  161  162 2   
   166  161  174 1   
   167  163  164 1   
   168  163  170 1   
   169  163  171 1   
   170  164  165 1   
   171  164  172 1   
   172  164  173 1   
   173  165  166 1   
   174  165  167 1   
   175  174  175 1   
   176  174  179 1   
   177  175  176 1   
   178  175  177 1   
   179  175  178 1   
   180  181  182 1   
   181  181  183 1   
   182  184  185 1   
   183  184  186 1   
   184  187  188 1   
   185  187  189 1   
   186  190  191 1   
   187  190  192 1   
   188  193  194 1   
   189  193  195 1   
@<TRIPOS>SUBSTRUCTURE
     1 MOL         1 TEMP              0 ****  ****    0 ROOT
