@<TRIPOS>MOLECULE
MOL
  181   177     1     0     0
SMALL
resp


@<TRIPOS>ATOM
      1 C1          2.2050    6.2070   -3.6140 c3        1 MOL     -0.487534
      2 C2          2.7250    6.7790   -2.3320 c         1 MOL      0.729015
      3 O1          2.0870    7.5330   -1.5850 o         1 MOL     -0.600255
      4 H1          2.5410    5.1760   -3.7130 hc        1 MOL      0.119547
      5 H2          1.1150    6.2340   -3.6080 hc        1 MOL      0.119547
      6 H3          2.5790    6.7940   -4.4520 hc        1 MOL      0.119547
      7 N1          4.0040    6.4370   -2.0950 n         1 MOL     -0.410695
      8 C3          4.8490    7.1240   -1.1330 c3        1 MOL     -0.053839
      9 C4          4.8200    6.4420    0.2160 c         1 MOL      0.599732
     10 O2          5.6820    6.6330    1.0800 o         1 MOL     -0.585896
     11 C5          6.2630    7.3390   -1.6890 c3        1 MOL      0.036162
     12 C6          7.0270    6.0590   -2.2040 c         1 MOL      0.635137
     13 O3          8.2140    6.0680   -2.0710 o         1 MOL     -0.685594
     14 O4          6.3220    5.0330   -2.5330 o         1 MOL     -0.685594
     15 H4          4.5160    6.0310   -2.8640 hn        1 MOL      0.185218
     16 H5          4.3140    8.0270   -0.8370 h1        1 MOL      0.056624
     17 H6          6.9160    7.9650   -1.0790 hc        1 MOL     -0.024419
     18 H7          6.1050    7.9810   -2.5530 hc        1 MOL     -0.024419
     19 N2          3.7810    5.6920    0.4710 n         1 MOL     -0.514736
     20 C7          3.7440    4.8070    1.6390 c3        1 MOL      0.442196
     21 C8          2.7160    3.6210    1.3560 c         1 MOL      0.445393
     22 O5          1.6810    3.7790    0.6670 o         1 MOL     -0.511249
     23 C9          3.4220    5.7080    2.8630 c3        1 MOL     -0.291728
     24 H8          3.1100    5.5610   -0.2760 hn        1 MOL      0.203362
     25 H9          4.7650    4.4200    1.7400 h1        1 MOL      0.020401
     26 H10         3.6400    5.3110    3.8570 hc        1 MOL      0.073615
     27 H11         4.2170    6.4500    2.9660 hc        1 MOL      0.073615
     28 H12         2.3930    6.0570    2.8390 hc        1 MOL      0.073615
     29 N3          3.0380    2.3900    1.8130 n         1 MOL     -0.663326
     30 C10         4.1730    1.7710    2.5210 c3        1 MOL     -0.003064
     31 C11         4.4220    0.2900    2.0670 c         1 MOL      0.639031
     32 O6          3.6280   -0.3110    1.3270 o         1 MOL     -0.566510
     33 C12         3.9880    1.8110    4.0430 c3        1 MOL     -0.463041
     34 C13         2.6240    1.1880    4.4390 c         1 MOL      0.753491
     35 O7          2.5660    0.0190    4.7760 o         1 MOL     -0.672783
     36 O8          1.5410    1.7770    4.3390 o         1 MOL     -0.672783
     37 H13         2.3440    1.7240    1.4960 hn        1 MOL      0.458939
     38 H14         5.0900    2.2580    2.2060 h1        1 MOL      0.098614
     39 H15         4.0980    2.8410    4.3560 hc        1 MOL      0.112632
     40 H16         4.7260    1.2370    4.5910 hc        1 MOL      0.112632
     41 N4          5.5900   -0.1920    2.3520 n         1 MOL     -0.534771
     42 C14         6.0470   -1.4630    1.8300 c3        1 MOL      0.179081
     43 C15         6.7900   -1.3830    0.5100 c         1 MOL      0.613501
     44 O9          7.4950   -0.4250    0.3230 o         1 MOL     -0.530640
     45 H17         6.2470    0.4320    2.7860 hn        1 MOL      0.337716
     46 H18         5.1380   -2.0220    1.5990 h1        1 MOL      0.011610
     47 H19         6.6640   -2.0290    2.5170 h1        1 MOL      0.011610
     48 N5          6.7590   -2.3440   -0.4280 n         1 MOL     -0.584611
     49 C16         6.1110   -3.6660   -0.4430 c3        1 MOL      0.258623
     50 C17         5.4380   -3.9470   -1.8270 c         1 MOL      0.583691
     51 O10         5.0660   -2.9470   -2.4680 o         1 MOL     -0.517201
     52 C18         7.1300   -4.7330    0.0340 c3        1 MOL     -0.623192
     53 C19         7.6380   -4.4880    1.4800 c         1 MOL      0.844523
     54 N6          6.9010   -5.0140    2.4390 n         1 MOL     -0.856578
     55 O11         8.6830   -3.9510    1.8270 o         1 MOL     -0.557080
     56 H20         7.4530   -2.2020   -1.1450 hn        1 MOL      0.328115
     57 H21         5.3080   -3.6490    0.2860 h1        1 MOL      0.030288
     58 H22         7.9770   -4.6990   -0.6550 hc        1 MOL      0.137649
     59 H23         6.6830   -5.7260    0.0470 hc        1 MOL      0.137649
     60 H24         6.0470   -5.4670    2.1460 hn        1 MOL      0.383677
     61 H25         7.2920   -5.2640    3.3340 hn        1 MOL      0.383677
     62 N7          5.1100   -5.1790   -2.2160 n         1 MOL     -0.424866
     63 C20         4.3720   -5.4320   -3.4730 c3        1 MOL     -0.334329
     64 C21         2.8980   -5.4610   -3.2360 c         1 MOL      0.484097
     65 O12         2.1050   -5.8670   -4.1400 o         1 MOL     -0.568499
     66 H26         5.5080   -5.9440   -1.7040 hn        1 MOL      0.303035
     67 H27         4.6110   -6.4450   -3.7950 h1        1 MOL      0.202514
     68 H28         4.6920   -4.7420   -4.2560 h1        1 MOL      0.202514
     69 N8          2.3310   -5.2360   -2.0680 n         1 MOL     -0.076101
     70 C22         0.9170   -5.5500   -1.6940 c3        1 MOL     -0.146189
     71 C23        -0.0470   -4.3020   -1.5660 c         1 MOL      0.647485
     72 O13         0.3700   -3.1510   -1.2980 o         1 MOL     -0.642093
     73 C24         0.7090   -6.4330   -0.4890 c3        1 MOL      0.470660
     74 C25         1.4590   -7.7420   -0.4120 c3        1 MOL     -0.308165
     75 O14         1.1960   -5.6820    0.6120 oh        1 MOL     -0.683461
     76 H29         2.9410   -5.0350   -1.2840 hn        1 MOL      0.145372
     77 H30         0.5120   -6.1970   -2.4690 h1        1 MOL      0.075789
     78 H31        -0.3720   -6.5940   -0.3950 h1        1 MOL     -0.017950
     79 H32         0.6120   -5.8910    1.3470 ho        1 MOL      0.436064
     80 H33         2.5090   -7.4730   -0.4920 hc        1 MOL      0.066783
     81 H34         1.2940   -8.2910    0.5180 hc        1 MOL      0.066783
     82 H35         1.2040   -8.3610   -1.2780 hc        1 MOL      0.066783
     83 N9         -1.3190   -4.5230   -1.7060 n         1 MOL     -0.547783
     84 C26        -2.4070   -3.5880   -1.3930 c3        1 MOL      0.205513
     85 C27        -2.7770   -3.5700    0.0930 c         1 MOL      0.460830
     86 O15        -3.2190   -4.6150    0.5990 o         1 MOL     -0.615006
     87 C28        -3.7190   -3.8080   -2.2650 c3        1 MOL      0.143360
     88 C29        -4.8520   -2.8430   -1.9880 c3        1 MOL     -0.116236
     89 C30        -3.4830   -3.7600   -3.7530 c3        1 MOL     -0.231792
     90 C31        -4.5690   -1.4150   -2.4540 c3        1 MOL      0.120996
     91 H36        -1.5500   -5.4890   -1.8850 hn        1 MOL      0.282002
     92 H37        -1.9770   -2.6460   -1.7390 h1        1 MOL      0.127187
     93 H38        -4.0640   -4.7870   -1.9130 hc        1 MOL     -0.033127
     94 H39        -5.0310   -2.6930   -0.9270 hc        1 MOL      0.010197
     95 H40        -5.7300   -3.2420   -2.4750 hc        1 MOL      0.010197
     96 H41        -4.4040   -3.8130   -4.3390 hc        1 MOL      0.053883
     97 H42        -2.8780   -2.9090   -4.0730 hc        1 MOL      0.053883
     98 H43        -2.9480   -4.6630   -4.0490 hc        1 MOL      0.053883
     99 H44        -3.5560   -1.1480   -2.1590 hc        1 MOL     -0.042930
    100 H45        -4.7250   -1.3080   -3.5330 hc        1 MOL     -0.042930
    101 H46        -5.2750   -0.7030   -2.0270 hc        1 MOL     -0.042930
    102 N10        -2.7730   -2.4200    0.7030 n         1 MOL      0.230648
    103 C32        -3.1980   -2.2330    2.0920 c3        1 MOL      0.070135
    104 C33        -4.6320   -1.6570    2.2220 c         1 MOL      0.247250
    105 O16        -5.3810   -2.0180    3.0980 o         1 MOL     -0.496480
    106 C34        -2.2180   -1.3980    2.9520 c3        1 MOL     -0.085575
    107 C35        -0.8370   -2.0870    3.0390 c         1 MOL      0.574402
    108 O17        -0.2150   -2.1870    1.9860 o         1 MOL     -0.659499
    109 O18        -0.4440   -2.5370    4.1810 o         1 MOL     -0.659499
    110 H47        -2.1800   -1.7100    0.3020 hn        1 MOL     -0.557873
    111 H48        -3.2360   -3.2510    2.4790 h1        1 MOL      0.059952
    112 H49        -2.6640   -1.3740    3.9570 hc        1 MOL      0.048376
    113 H50        -2.1640   -0.4360    2.4460 hc        1 MOL      0.048376
    114 N11        -5.0710   -0.7760    1.2750 n         1 MOL     -0.314138
    115 C36        -6.3960   -0.2130    1.2840 c3        1 MOL      0.380852
    116 C37        -6.4000    1.2410    0.6930 c         1 MOL      0.177696
    117 O19        -7.0140    1.5360   -0.3510 o         1 MOL     -0.432725
    118 C38        -7.4470   -1.1830    0.6560 c3        1 MOL     -0.369141
    119 C39        -8.8930   -0.7870    0.9590 ca        1 MOL      0.177796
    120 C40        -9.3430   -0.6120    2.2660 ca        1 MOL     -0.207966
    121 C41        -9.7430   -0.4330   -0.1550 ca        1 MOL     -0.207966
    122 C42       -10.7090   -0.3450    2.5140 ca        1 MOL     -0.058911
    123 C43       -11.0490    0.0480    0.1340 ca        1 MOL     -0.058911
    124 C44       -11.5510   -0.0160    1.4520 ca        1 MOL     -0.212588
    125 H51        -4.3990   -0.5740    0.5470 hn        1 MOL      0.481364
    126 H52        -6.6590   -0.0290    2.3240 h1        1 MOL     -0.004335
    127 H53        -7.2840   -2.1320    1.1590 hc        1 MOL      0.098012
    128 H54        -7.2860   -1.2000   -0.4190 hc        1 MOL      0.098012
    129 H55        -8.6970   -0.7420    3.1180 ha        1 MOL      0.135319
    130 H56        -9.3650   -0.5200   -1.1650 ha        1 MOL      0.135319
    131 H57       -11.0050   -0.2770    3.5440 ha        1 MOL      0.091968
    132 H58       -11.6590    0.3150   -0.7170 ha        1 MOL      0.091968
    133 H59       -12.5320    0.3510    1.7150 ha        1 MOL      0.114214
    134 N12        -5.6260    2.1350    1.3080 n         1 MOL      0.033033
    135 C45        -5.5320    3.5170    0.7530 c3        1 MOL     -0.051410
    136 C46        -4.9730    3.6730   -0.6250 c         1 MOL      0.242241
    137 O20        -5.1910    4.7460   -1.2420 o         1 MOL     -0.524690
    138 C47        -4.6550    4.3140    1.8500 c3        1 MOL     -0.124370
    139 C48        -4.8500    3.5380    3.1480 c3        1 MOL     -0.057743
    140 C49        -5.0420    2.1120    2.6250 c3        1 MOL      0.002810
    141 H60        -6.5640    3.8480    0.6380 h1        1 MOL      0.084120
    142 H61        -3.6050    4.2890    1.5640 hc        1 MOL      0.087823
    143 H62        -4.9010    5.3500    2.1020 hc        1 MOL      0.087823
    144 H63        -3.9650    3.5740    3.7890 hc        1 MOL      0.038934
    145 H64        -5.7350    3.8310    3.7050 hc        1 MOL      0.038934
    146 H65        -4.0790    1.6180    2.5540 h1        1 MOL      0.030565
    147 H66        -5.6480    1.6040    3.3710 h1        1 MOL      0.030565
    148 N13        -4.2810    2.7150   -1.1910 n         1 MOL      0.070334
    149 C50        -3.7270    2.8440   -2.5530 c3        1 MOL     -0.171122
    150 C51        -4.7880    2.6800   -3.5730 c         1 MOL      0.413759
    151 O21        -4.5250    3.2280   -4.6330 o         1 MOL     -0.538570
    152 C52        -2.5190    1.8700   -2.7880 c3        1 MOL      0.035861
    153 C53        -1.4510    1.7730   -1.6910 c3        1 MOL      0.014974
    154 C54        -1.7310    0.6230   -0.6410 c         1 MOL      0.540379
    155 O22        -0.9300   -0.3420   -0.5640 o         1 MOL     -0.532836
    156 O23        -2.7090    0.8480    0.1000 o         1 MOL     -0.532836
    157 H67        -4.0700    1.8770   -0.6760 hn        1 MOL     -0.006272
    158 H68        -3.3220    3.8550   -2.6720 h1        1 MOL      0.146760
    159 H69        -2.0000    2.2210   -3.6810 hc        1 MOL      0.002743
    160 H70        -2.8280    0.8720   -3.1070 hc        1 MOL      0.002743
    161 H71        -1.2100    2.7070   -1.1880 hc        1 MOL     -0.006819
    162 H72        -0.5650    1.3960   -2.1970 hc        1 MOL     -0.006819
    163 N14        -5.9740    2.2320   -3.1750 n         1 MOL     -0.071190
    164 C55        -7.2380    2.2630   -3.9890 c3        1 MOL     -0.280301
    165 H73        -7.6310    3.2790   -4.0100 h1        1 MOL      0.104735
    166 H74        -7.0230    1.9370   -5.0070 h1        1 MOL      0.104735
    167 H75        -7.9770    1.5980   -3.5410 h1        1 MOL      0.104735
    168 H76        -6.1210    1.8280   -2.2580 hn        1 MOL      0.138023
    169 Ca1         1.3200   -1.1170    0.2310 Ca        1 MOL      1.718664
    170 O24         1.7400    1.1860   -1.0010 oh        1 MOL     -0.861041
    171 H77         1.3130    2.0300   -0.8410 ho        1 MOL      0.411805
    172 H78         2.6180    1.4290   -1.3030 ho        1 MOL      0.411805
    173 O25         0.6350    0.7860    2.0130 oh        1 MOL     -0.861041
    174 H79         0.8780    1.0360    2.9040 ho        1 MOL      0.411805
    175 H80        -0.1880    1.2590    1.8540 ho        1 MOL      0.411805
    176 O26         3.1680   -1.3190   -1.5470 oh        1 MOL     -0.861041
    177 H81         3.5480   -0.4870   -1.8180 ho        1 MOL      0.411805
    178 H82         3.7220   -1.9870   -1.9610 ho        1 MOL      0.411805
    179 O27         2.7520   -3.3940    0.5430 oh        1 MOL     -0.861041
    180 H83         2.1750   -4.1570    0.6550 ho        1 MOL      0.411805
    181 H84         3.2630   -3.3500    1.3500 ho        1 MOL      0.411805
@<TRIPOS>BOND
     1    1    2 1   
     2    1    4 1   
     3    1    5 1   
     4    1    6 1   
     5    2    3 2   
     6    2    7 1   
     7    7    8 1   
     8    7   15 1   
     9    8    9 1   
    10    8   11 1   
    11    8   16 1   
    12    9   10 2   
    13    9   19 1   
    14   11   12 1   
    15   11   17 1   
    16   11   18 1   
    17   12   13 1   
    18   12   14 1   
    19   19   20 1   
    20   19   24 1   
    21   20   21 1   
    22   20   23 1   
    23   20   25 1   
    24   21   22 2   
    25   21   29 1   
    26   23   26 1   
    27   23   27 1   
    28   23   28 1   
    29   29   30 1   
    30   29   37 1   
    31   30   31 1   
    32   30   33 1   
    33   30   38 1   
    34   31   32 2   
    35   31   41 1   
    36   33   34 1   
    37   33   39 1   
    38   33   40 1   
    39   34   35 1   
    40   34   36 1   
    41   41   42 1   
    42   41   45 1   
    43   42   43 1   
    44   42   46 1   
    45   42   47 1   
    46   43   44 2   
    47   43   48 1   
    48   48   49 1   
    49   48   56 1   
    50   49   50 1   
    51   49   52 1   
    52   49   57 1   
    53   50   51 2   
    54   50   62 1   
    55   52   53 1   
    56   52   58 1   
    57   52   59 1   
    58   53   54 1   
    59   53   55 2   
    60   54   60 1   
    61   54   61 1   
    62   62   63 1   
    63   62   66 1   
    64   63   64 1   
    65   63   67 1   
    66   63   68 1   
    67   64   65 2   
    68   64   69 1   
    69   69   70 1   
    70   69   76 1   
    71   70   71 1   
    72   70   73 1   
    73   70   77 1   
    74   71   72 2   
    75   71   83 1   
    76   73   74 1   
    77   73   75 1   
    78   73   78 1   
    79   74   80 1   
    80   74   81 1   
    81   74   82 1   
    82   75   79 1   
    83   83   84 1   
    84   83   91 1   
    85   84   85 1   
    86   84   87 1   
    87   84   92 1   
    88   85   86 2   
    89   85  102 1   
    90   87   88 1   
    91   87   89 1   
    92   87   93 1   
    93   88   90 1   
    94   88   94 1   
    95   88   95 1   
    96   89   96 1   
    97   89   97 1   
    98   89   98 1   
    99   90   99 1   
   100   90  100 1   
   101   90  101 1   
   102  102  103 1   
   103  102  110 1   
   104  103  104 1   
   105  103  106 1   
   106  103  111 1   
   107  104  105 2   
   108  104  114 1   
   109  106  107 1   
   110  106  112 1   
   111  106  113 1   
   112  107  108 1   
   113  107  109 1   
   114  114  115 1   
   115  114  125 1   
   116  115  116 1   
   117  115  118 1   
   118  115  126 1   
   119  116  117 2   
   120  116  134 1   
   121  118  119 1   
   122  118  127 1   
   123  118  128 1   
   124  119  120 ar  
   125  119  121 ar  
   126  120  122 ar  
   127  120  129 1   
   128  121  123 ar  
   129  121  130 1   
   130  122  124 ar  
   131  122  131 1   
   132  123  124 ar  
   133  123  132 1   
   134  124  133 1   
   135  134  135 1   
   136  134  140 1   
   137  135  136 1   
   138  135  138 1   
   139  135  141 1   
   140  136  137 2   
   141  136  148 1   
   142  138  139 1   
   143  138  142 1   
   144  138  143 1   
   145  139  140 1   
   146  139  144 1   
   147  139  145 1   
   148  140  146 1   
   149  140  147 1   
   150  148  149 1   
   151  148  157 1   
   152  149  150 1   
   153  149  152 1   
   154  149  158 1   
   155  150  151 2   
   156  150  163 1   
   157  152  153 1   
   158  152  159 1   
   159  152  160 1   
   160  153  154 1   
   161  153  161 1   
   162  153  162 1   
   163  154  155 1   
   164  154  156 1   
   165  163  164 1   
   166  163  168 1   
   167  164  165 1   
   168  164  166 1   
   169  164  167 1   
   170  170  171 1   
   171  170  172 1   
   172  173  174 1   
   173  173  175 1   
   174  176  177 1   
   175  176  178 1   
   176  179  180 1   
   177  179  181 1   
@<TRIPOS>SUBSTRUCTURE
     1 MOL         1 TEMP              0 ****  ****    0 ROOT
