@<TRIPOS>MOLECULE
MOL
  192   187     1     0     0
SMALL
resp


@<TRIPOS>ATOM
      1 C1          5.0730    4.0170   -3.2590 c3        1 MOL     -0.359044
      2 C2          5.8180    3.2250   -2.1620 c         1 MOL      0.763108
      3 O1          5.1660    2.8330   -1.1500 o         1 MOL     -0.631070
      4 H1          4.2000    4.5040   -2.8260 hc        1 MOL      0.095833
      5 H2          5.7380    4.7720   -3.6790 hc        1 MOL      0.095833
      6 H3          4.7540    3.3350   -4.0480 hc        1 MOL      0.095833
      7 N1          6.9800    2.6070   -2.4830 n         1 MOL     -0.751670
      8 C3          7.5320    1.4000   -1.8100 c3        1 MOL      0.412536
      9 C4          6.3800    0.4030   -1.5740 c         1 MOL      0.222421
     10 O2          6.0330    0.0130   -0.4930 o         1 MOL     -0.375865
     11 C5          8.3670    1.6840   -0.5840 c3        1 MOL     -0.256029
     12 C6          7.8680    2.8200    0.3050 c         1 MOL      0.765465
     13 O3          7.1040    2.5120    1.2470 o         1 MOL     -0.732959
     14 O4          8.1900    4.0560    0.1100 o         1 MOL     -0.732959
     15 H4          7.4700    2.9320   -3.3100 hn        1 MOL      0.336936
     16 H5          8.0870    0.8560   -2.5740 h1        1 MOL     -0.008409
     17 H6          9.3790    1.9260   -0.9130 hc        1 MOL      0.033689
     18 H7          8.3140    0.7920    0.0290 hc        1 MOL      0.033689
     19 N2          5.7730    0.0110   -2.7110 n         1 MOL     -0.259391
     20 C7          4.8710   -1.1130   -2.9180 c3        1 MOL     -0.077825
     21 C8          5.3730   -2.4970   -2.4030 c         1 MOL      0.463996
     22 O5          5.7580   -3.3420   -3.2320 o         1 MOL     -0.562893
     23 C9          3.4440   -0.6890   -2.5420 c3        1 MOL      0.173984
     24 C10         2.4550   -1.7300   -3.0620 c3        1 MOL     -0.117707
     25 C11         3.0090    0.6160   -3.1680 c3        1 MOL     -0.051864
     26 C12         2.2210   -2.0340   -4.5570 c3        1 MOL     -0.310202
     27 H8          6.2780    0.2400   -3.5480 hn        1 MOL      0.233121
     28 H9          4.8060   -1.0560   -4.0010 h1        1 MOL      0.049274
     29 H10         3.3300   -0.6030   -1.4620 hc        1 MOL     -0.082521
     30 H11         1.4880   -1.4750   -2.6430 hc        1 MOL      0.082767
     31 H12         2.7350   -2.6390   -2.5320 hc        1 MOL      0.082767
     32 H13         3.5800    1.4000   -2.6610 hc        1 MOL      0.004597
     33 H14         3.2970    0.6380   -4.2200 hc        1 MOL      0.004597
     34 H15         1.9500    0.8790   -3.1050 hc        1 MOL      0.004597
     35 H16         3.1140   -2.4010   -5.0570 hc        1 MOL      0.074580
     36 H17         1.4880   -2.8170   -4.7460 hc        1 MOL      0.074580
     37 H18         1.8140   -1.1650   -5.0860 hc        1 MOL      0.074580
     38 N3          5.3460   -2.7280   -1.1050 n         1 MOL     -0.099430
     39 C13         5.7790   -3.9860   -0.4420 c3        1 MOL     -0.041322
     40 C14         4.7040   -5.0850   -0.2160 c         1 MOL      0.588483
     41 O6          4.9640   -6.2560   -0.4880 o         1 MOL     -0.591972
     42 C15         6.4470   -3.6870    0.8780 c3        1 MOL     -0.263652
     43 C16         7.7880   -2.9640    0.8240 c         1 MOL      0.735088
     44 O7          8.0100   -2.0130    1.5970 o         1 MOL     -0.709355
     45 O8          8.6990   -3.3290    0.0700 o         1 MOL     -0.709355
     46 H19         4.9510   -2.0540   -0.4680 hn        1 MOL      0.204848
     47 H20         6.5350   -4.4610   -1.0760 h1        1 MOL      0.068246
     48 H21         6.5630   -4.5870    1.4710 hc        1 MOL      0.076295
     49 H22         5.8640   -2.9900    1.4830 hc        1 MOL      0.076295
     50 N4          3.5160   -4.7770    0.1680 n         1 MOL     -0.537800
     51 C17         3.0470   -3.6790    0.9960 c3        1 MOL      0.104129
     52 C18         1.7570   -4.0290    1.7200 c         1 MOL      0.621196
     53 O9          1.1940   -5.0900    1.3290 o         1 MOL     -0.609752
     54 H23         2.8920   -5.5650    0.2980 hn        1 MOL      0.299122
     55 H24         3.0220   -2.7520    0.4140 h1        1 MOL      0.046499
     56 H25         3.7990   -3.4520    1.7560 h1        1 MOL      0.046499
     57 N5          1.2440   -3.2690    2.6150 n         1 MOL     -0.515217
     58 C19         1.7560   -1.9780    3.0800 c3        1 MOL      0.054438
     59 C20         2.0200   -0.9560    1.9400 c         1 MOL      0.589562
     60 O10         3.1680   -0.6060    1.6830 o         1 MOL     -0.710491
     61 C21         2.9030   -2.0560    4.1290 c3        1 MOL     -0.106258
     62 C22         2.6110   -3.0850    5.2320 c         1 MOL      0.743535
     63 O11         3.5760   -3.7500    5.5870 o         1 MOL     -0.729159
     64 O12         1.4830   -3.1050    5.7150 o         1 MOL     -0.729159
     65 H26         0.3610   -3.5370    3.0160 hn        1 MOL      0.309825
     66 H27         0.9680   -1.5210    3.6850 h1        1 MOL      0.032475
     67 H28         3.0480   -1.0730    4.5630 hc        1 MOL     -0.006121
     68 H29         3.7800   -2.3900    3.5890 hc        1 MOL     -0.006121
     69 N6          1.0050   -0.6150    1.1490 n         1 MOL     -0.322376
     70 C23        -0.3370   -1.1300    1.0480 c3        1 MOL     -0.046925
     71 C24        -0.6420   -2.2170    0.0030 c         1 MOL      0.407738
     72 O13         0.1330   -2.5160   -0.9110 o         1 MOL     -0.461464
     73 H30         1.2240    0.1590    0.5400 hn        1 MOL      0.260106
     74 H31        -1.0270   -0.3070    0.9210 h1        1 MOL      0.041702
     75 H32        -0.6500   -1.5870    1.9920 h1        1 MOL      0.041702
     76 N7         -1.7950   -2.8710    0.2050 n         1 MOL     -0.272001
     77 C25        -2.2860   -4.0170   -0.5540 c3        1 MOL     -0.163557
     78 C26        -2.7940   -3.6830   -1.9390 c         1 MOL      0.479769
     79 O14        -2.9810   -4.4950   -2.8190 o         1 MOL     -0.524385
     80 C27        -3.1850   -4.8950    0.2610 c3        1 MOL      0.230826
     81 C28        -4.5260   -4.1600    0.5950 c3        1 MOL     -0.036327
     82 C29        -5.4670   -5.0900    1.2400 c         1 MOL      0.592635
     83 N8         -5.5020   -5.2430    2.5270 n         1 MOL     -0.760760
     84 O15        -6.2230   -5.8280    0.5810 o         1 MOL     -0.542047
     85 H33        -2.3950   -2.6220    0.9800 hn        1 MOL      0.257568
     86 H34        -1.4040   -4.5840   -0.8690 h1        1 MOL      0.165173
     87 H35        -2.6560   -5.0220    1.1960 hc        1 MOL     -0.026482
     88 H36        -3.4080   -5.8830   -0.1480 hc        1 MOL     -0.026482
     89 H37        -5.0070   -3.7290   -0.2880 hc        1 MOL     -0.039663
     90 H38        -4.2690   -3.3580    1.2710 hc        1 MOL     -0.039663
     91 H39        -4.8900   -4.6820    3.1030 hn        1 MOL      0.361637
     92 H40        -6.2760   -5.7730    2.8910 hn        1 MOL      0.361637
     93 N9         -3.0270   -2.3790   -2.2290 n         1 MOL     -0.146714
     94 C30        -3.5270   -1.8490   -3.5020 c3        1 MOL     -0.227126
     95 C31        -4.8770   -1.1750   -3.4350 c         1 MOL      0.559876
     96 O16        -5.3860   -0.7470   -4.4880 o         1 MOL     -0.556219
     97 C32        -2.4590   -1.0100   -4.1150 c3        1 MOL      0.258478
     98 C33        -1.3650   -1.9510   -4.7410 c3        1 MOL     -0.281431
     99 C34        -1.8880    0.0620   -3.1870 c3        1 MOL     -0.281431
    100 H41        -2.9460   -1.8140   -1.3930 hn        1 MOL      0.086021
    101 H42        -3.6730   -2.7450   -4.1090 h1        1 MOL      0.131490
    102 H43        -2.9690   -0.5570   -4.9690 hc        1 MOL     -0.008717
    103 H44        -0.6830   -1.3670   -5.3720 hc        1 MOL      0.071942
    104 H45        -0.8230   -2.5380   -4.0030 hc        1 MOL      0.071942
    105 H46        -1.8620   -2.6390   -5.4160 hc        1 MOL      0.071942
    106 H47        -1.1570    0.6160   -3.7820 hc        1 MOL      0.071942
    107 H48        -2.6780    0.7220   -2.8210 hc        1 MOL      0.071942
    108 H49        -1.2720   -0.3450   -2.3880 hc        1 MOL      0.071942
    109 N10        -5.3700   -0.9520   -2.2330 n         1 MOL     -0.379916
    110 C35        -6.6840   -0.3270   -2.0120 c3        1 MOL      0.041745
    111 C36        -6.6100    1.0010   -1.2030 c         1 MOL      0.558309
    112 O17        -7.4750    1.9200   -1.3180 o         1 MOL     -0.590277
    113 C37        -7.5300   -1.3480   -1.1870 c3        1 MOL     -0.283188
    114 C38        -7.8460   -2.5450   -2.0240 c         1 MOL      0.710957
    115 N11        -7.7850   -2.5470   -3.3590 n         1 MOL     -0.853980
    116 O18        -8.0500   -3.5870   -1.4600 o         1 MOL     -0.562113
    117 H50        -4.8350   -1.1940   -1.4160 hn        1 MOL      0.289549
    118 H51        -7.1840   -0.1020   -2.9480 h1        1 MOL      0.062123
    119 H52        -8.4800   -0.9510   -0.8170 hc        1 MOL      0.110091
    120 H53        -6.9070   -1.5890   -0.3330 hc        1 MOL      0.110091
    121 H54        -7.5110   -1.7120   -3.8660 hn        1 MOL      0.386482
    122 H55        -7.8910   -3.4410   -3.8140 hn        1 MOL      0.386482
    123 N12        -5.6200    1.1760   -0.3840 n         1 MOL     -0.452881
    124 C39        -5.6040    2.2540    0.6050 c3        1 MOL      0.260713
    125 C40        -4.2160    2.9380    0.5840 c         1 MOL      0.286348
    126 O19        -3.2830    2.2300    0.2180 o         1 MOL     -0.413747
    127 C41        -5.9300    1.5640    1.9650 c3        1 MOL     -0.090124
    128 C42        -7.2780    0.9160    2.0700 ca        1 MOL      0.046612
    129 C43        -8.4880    1.6490    1.8020 ca        1 MOL     -0.134317
    130 C44        -7.4170   -0.4250    2.4600 ca        1 MOL     -0.134317
    131 C45        -9.7370    1.0090    1.8960 ca        1 MOL     -0.268212
    132 C46        -8.6420   -1.0050    2.6490 ca        1 MOL     -0.268212
    133 C47        -9.8350   -0.3070    2.2650 ca        1 MOL      0.341228
    134 O20       -11.0890   -0.8880    2.2230 oh        1 MOL     -0.503812
    135 H56        -4.9310    0.4430   -0.2860 hn        1 MOL      0.224625
    136 H57        -6.3240    3.0460    0.4060 h1        1 MOL      0.036015
    137 H58        -5.8740    2.2870    2.7780 hc        1 MOL      0.055145
    138 H59        -5.2320    0.7440    2.1150 hc        1 MOL      0.055145
    139 H60        -8.4720    2.7300    1.7330 ha        1 MOL      0.117810
    140 H61        -6.5360   -1.0040    2.6980 ha        1 MOL      0.117810
    141 H62       -10.6570    1.5630    1.7290 ha        1 MOL      0.147397
    142 H63        -8.6870   -2.0440    2.9240 ha        1 MOL      0.147397
    143 H64       -11.7340   -0.3150    1.8020 ho        1 MOL      0.358038
    144 N13        -4.1570    4.1430    1.1780 n         1 MOL     -0.364303
    145 C48        -3.0350    5.0500    1.3960 c3        1 MOL      0.078777
    146 C49        -2.1760    5.4050    0.1910 c         1 MOL      0.335960
    147 O21        -2.0230    6.5880   -0.1050 o         1 MOL     -0.547389
    148 C50        -2.1600    4.6540    2.6660 c3        1 MOL      0.193498
    149 C51        -2.9980    4.3840    3.8980 c3        1 MOL     -0.284540
    150 C52        -2.0440    4.3040    5.1050 c         1 MOL      0.690393
    151 O22        -2.2350    5.1170    6.0580 o         1 MOL     -0.711454
    152 O23        -1.1320    3.4400    5.1440 o         1 MOL     -0.711454
    153 H65        -5.0300    4.6140    1.3880 hn        1 MOL      0.274973
    154 H66        -3.5290    5.9890    1.6620 h1        1 MOL      0.051632
    155 H67        -1.4790    5.4590    2.9710 hc        1 MOL     -0.005139
    156 H68        -1.6310    3.7240    2.4700 hc        1 MOL     -0.005139
    157 H69        -3.3490    3.3740    3.6670 hc        1 MOL      0.013183
    158 H70        -3.7900    5.1260    3.9460 hc        1 MOL      0.013183
    159 N14        -1.7670    4.4760   -0.6140 n         1 MOL     -0.290983
    160 C53        -0.6260    4.6080   -1.5300 c3        1 MOL     -0.148349
    161 C54        -0.8670    5.4660   -2.7790 c         1 MOL      0.475389
    162 O24         0.0500    5.6420   -3.5160 o         1 MOL     -0.541960
    163 C55        -0.0710    3.2500   -1.8860 c3        1 MOL     -0.083976
    164 C56         0.1620    2.3450   -0.6040 c3        1 MOL      0.032679
    165 C57         1.5300    2.5950    0.0810 c         1 MOL      0.795472
    166 O25         1.8450    3.7090    0.4740 o         1 MOL     -0.707344
    167 O26         2.2710    1.5870    0.0060 o         1 MOL     -0.707344
    168 H71        -2.0680    3.5220   -0.4370 hn        1 MOL      0.263067
    169 H72         0.2380    5.0470   -1.0470 h1        1 MOL      0.199750
    170 H73         0.8390    3.3280   -2.4840 hc        1 MOL      0.045914
    171 H74        -0.8240    2.6210   -2.3540 hc        1 MOL      0.045914
    172 H75         0.0360    1.2940   -0.8700 hc        1 MOL     -0.043739
    173 H76        -0.6740    2.3880    0.0870 hc        1 MOL     -0.043739
    174 N15        -2.1030    5.7940   -3.0900 n         1 MOL     -0.166982
    175 C58        -2.6260    6.6560   -4.1970 c3        1 MOL     -0.300219
    176 H77        -3.5260    7.1720   -3.8610 h1        1 MOL      0.115285
    177 H78        -1.8700    7.3900   -4.4740 h1        1 MOL      0.115285
    178 H79        -2.8650    6.0350   -5.0600 h1        1 MOL      0.115285
    179 H80        -2.8530    5.3540   -2.5750 hn        1 MOL      0.212798
    180 Ca1         4.6100    1.6170    1.2340 Ca        1 MOL      1.808401
    181 O27         2.6470    2.0150    3.1900 oh        1 MOL     -0.866787
    182 H81         1.8680    1.4600    3.1900 ho        1 MOL      0.416920
    183 H82         2.8690    2.1270    4.1110 ho        1 MOL      0.416920
    184 O28         4.2050    4.4670    1.2750 oh        1 MOL     -0.866787
    185 H83         3.3330    4.2880    0.9200 ho        1 MOL      0.416920
    186 H84         4.0600    5.1200    1.9570 ho        1 MOL      0.416920
    187 O29         6.0060   -0.4180    2.4000 oh        1 MOL     -0.866787
    188 H85         6.5770   -1.0120    1.9310 ho        1 MOL      0.416920
    189 H86         6.0470   -0.7190    3.3110 ho        1 MOL      0.416920
    190 O30         5.6790    2.1270    3.8720 oh        1 MOL     -0.866787
    191 H87         4.9540    2.2200    4.4780 ho        1 MOL      0.416920
    192 H88         6.4620    2.1010    4.4280 ho        1 MOL      0.416920
@<TRIPOS>BOND
     1    1    2 1   
     2    1    4 1   
     3    1    5 1   
     4    1    6 1   
     5    2    3 2   
     6    2    7 1   
     7    7    8 1   
     8    7   15 1   
     9    8    9 1   
    10    8   11 1   
    11    8   16 1   
    12    9   10 2   
    13    9   19 1   
    14   11   12 1   
    15   11   17 1   
    16   11   18 1   
    17   12   13 1   
    18   12   14 1   
    19   19   20 1   
    20   19   27 1   
    21   20   21 1   
    22   20   23 1   
    23   20   28 1   
    24   21   22 2   
    25   21   38 1   
    26   23   24 1   
    27   23   25 1   
    28   23   29 1   
    29   24   26 1   
    30   24   30 1   
    31   24   31 1   
    32   25   32 1   
    33   25   33 1   
    34   25   34 1   
    35   26   35 1   
    36   26   36 1   
    37   26   37 1   
    38   38   39 1   
    39   38   46 1   
    40   39   40 1   
    41   39   42 1   
    42   39   47 1   
    43   40   41 2   
    44   40   50 1   
    45   42   43 1   
    46   42   48 1   
    47   42   49 1   
    48   43   44 1   
    49   43   45 1   
    50   50   51 1   
    51   50   54 1   
    52   51   52 1   
    53   51   55 1   
    54   51   56 1   
    55   52   53 2   
    56   52   57 1   
    57   57   58 1   
    58   57   65 1   
    59   58   59 1   
    60   58   61 1   
    61   58   66 1   
    62   59   60 2   
    63   59   69 1   
    64   61   62 1   
    65   61   67 1   
    66   61   68 1   
    67   62   63 1   
    68   62   64 1   
    69   69   70 1   
    70   69   73 1   
    71   70   71 1   
    72   70   74 1   
    73   70   75 1   
    74   71   72 2   
    75   71   76 1   
    76   76   77 1   
    77   76   85 1   
    78   77   78 1   
    79   77   80 1   
    80   77   86 1   
    81   78   79 2   
    82   78   93 1   
    83   80   81 1   
    84   80   87 1   
    85   80   88 1   
    86   81   82 1   
    87   81   89 1   
    88   81   90 1   
    89   82   83 1   
    90   82   84 2   
    91   83   91 1   
    92   83   92 1   
    93   93   94 1   
    94   93  100 1   
    95   94   95 1   
    96   94   97 1   
    97   94  101 1   
    98   95   96 2   
    99   95  109 1   
   100   97   98 1   
   101   97   99 1   
   102   97  102 1   
   103   98  103 1   
   104   98  104 1   
   105   98  105 1   
   106   99  106 1   
   107   99  107 1   
   108   99  108 1   
   109  109  110 1   
   110  109  117 1   
   111  110  111 1   
   112  110  113 1   
   113  110  118 1   
   114  111  112 2   
   115  111  123 1   
   116  113  114 1   
   117  113  119 1   
   118  113  120 1   
   119  114  115 1   
   120  114  116 2   
   121  115  121 1   
   122  115  122 1   
   123  123  124 1   
   124  123  135 1   
   125  124  125 1   
   126  124  127 1   
   127  124  136 1   
   128  125  126 2   
   129  125  144 1   
   130  127  128 1   
   131  127  137 1   
   132  127  138 1   
   133  128  129 ar  
   134  128  130 ar  
   135  129  131 ar  
   136  129  139 1   
   137  130  132 ar  
   138  130  140 1   
   139  131  133 ar  
   140  131  141 1   
   141  132  133 ar  
   142  132  142 1   
   143  133  134 1   
   144  134  143 1   
   145  144  145 1   
   146  144  153 1   
   147  145  146 1   
   148  145  148 1   
   149  145  154 1   
   150  146  147 2   
   151  146  159 1   
   152  148  149 1   
   153  148  155 1   
   154  148  156 1   
   155  149  150 1   
   156  149  157 1   
   157  149  158 1   
   158  150  151 1   
   159  150  152 1   
   160  159  160 1   
   161  159  168 1   
   162  160  161 1   
   163  160  163 1   
   164  160  169 1   
   165  161  162 2   
   166  161  174 1   
   167  163  164 1   
   168  163  170 1   
   169  163  171 1   
   170  164  165 1   
   171  164  172 1   
   172  164  173 1   
   173  165  166 1   
   174  165  167 1   
   175  174  175 1   
   176  174  179 1   
   177  175  176 1   
   178  175  177 1   
   179  175  178 1   
   180  181  182 1   
   181  181  183 1   
   182  184  185 1   
   183  184  186 1   
   184  187  188 1   
   185  187  189 1   
   186  190  191 1   
   187  190  192 1   
@<TRIPOS>SUBSTRUCTURE
     1 MOL         1 TEMP              0 ****  ****    0 ROOT
