@<TRIPOS>MOLECULE
MOL
  181   177     1     0     0
SMALL
resp


@<TRIPOS>ATOM
      1 C1          0.6400    6.5640   -2.8090 c3        1 MOL     -0.365074
      2 C2          2.0070    6.4460   -2.1200 c         1 MOL      0.719647
      3 O1          2.2910    7.2920   -1.2520 o         1 MOL     -0.601730
      4 H1          0.3280    7.6090   -2.8200 hc        1 MOL      0.087389
      5 H2          0.7150    6.1970   -3.8330 hc        1 MOL      0.087389
      6 H3         -0.0950    5.9720   -2.2640 hc        1 MOL      0.087389
      7 N1          2.9210    5.5910   -2.5360 n         1 MOL     -0.672270
      8 C3          4.2550    5.4510   -1.9040 c3        1 MOL      0.411806
      9 C4          4.1840    4.7030   -0.5690 c         1 MOL      0.562964
     10 O2          3.5350    3.6540   -0.5250 o         1 MOL     -0.572322
     11 C5          5.2630    4.8350   -2.9060 c3        1 MOL     -0.368696
     12 C6          6.6490    4.5660   -2.3310 c         1 MOL      0.804377
     13 O3          7.0510    5.3870   -1.4960 o         1 MOL     -0.742684
     14 O4          7.3700    3.6150   -2.6630 o         1 MOL     -0.742684
     15 H4          2.7300    5.0320   -3.3550 hn        1 MOL      0.311333
     16 H5          4.5830    6.4330   -1.5800 h1        1 MOL     -0.027392
     17 H6          5.4790    5.5680   -3.6890 hc        1 MOL      0.048426
     18 H7          4.9080    3.8620   -3.2590 hc        1 MOL      0.048426
     19 N2          4.9970    5.0930    0.3990 n         1 MOL     -0.536452
     20 C7          5.1850    4.3830    1.6970 c3        1 MOL      0.358995
     21 C8          3.8130    4.0320    2.3460 c         1 MOL      0.393145
     22 O5          2.9340    4.9040    2.2440 o         1 MOL     -0.556646
     23 C9          6.0770    5.2620    2.4970 c3        1 MOL     -0.459224
     24 H8          5.5990    5.9010    0.2950 hn        1 MOL      0.302106
     25 H9          5.6860    3.4410    1.4580 h1        1 MOL      0.033649
     26 H10         6.3780    4.7380    3.3990 hc        1 MOL      0.115166
     27 H11         6.9270    5.6370    1.9160 hc        1 MOL      0.115166
     28 H12         5.6000    6.1960    2.8100 hc        1 MOL      0.115166
     29 N3          3.5880    2.8540    2.8730 n         1 MOL     -0.242167
     30 C10         4.4670    1.8020    3.3580 c3        1 MOL     -0.028288
     31 C11         4.7190    0.5590    2.3060 c         1 MOL      0.305831
     32 O6          3.9390    0.3610    1.3390 o         1 MOL     -0.335567
     33 C12         3.9820    1.3900    4.6900 c3        1 MOL     -0.146224
     34 C13         2.5420    0.8500    4.8230 c         1 MOL      0.700389
     35 O7          2.1520    0.7370    5.9930 o         1 MOL     -0.679258
     36 O8          1.8900    0.4440    3.8280 o         1 MOL     -0.679258
     37 H13         2.5850    2.7850    3.0200 hn        1 MOL      0.214040
     38 H14         5.4430    2.2380    3.5590 h1        1 MOL      0.056420
     39 H15         4.0280    2.1740    5.4450 hc        1 MOL      0.029433
     40 H16         4.5640    0.5470    5.0720 hc        1 MOL      0.029433
     41 N4          5.8760   -0.1420    2.4800 n         1 MOL     -0.340815
     42 C14         6.2630   -1.3030    1.7530 c3        1 MOL      0.166359
     43 C15         7.3880   -1.1970    0.6810 c         1 MOL      0.485929
     44 O9          8.1070   -0.1890    0.7600 o         1 MOL     -0.503023
     45 H17         6.4670    0.1760    3.2320 hn        1 MOL      0.261121
     46 H18         5.4020   -1.7490    1.2700 h1        1 MOL     -0.001256
     47 H19         6.6590   -2.0370    2.4540 h1        1 MOL     -0.001256
     48 N5          7.5680   -2.1380   -0.2720 n         1 MOL     -0.486782
     49 C16         6.8740   -3.3850   -0.5210 c3        1 MOL      0.089412
     50 C17         5.5990   -3.1250   -1.3120 c         1 MOL      0.544499
     51 O10         5.0860   -1.9880   -1.4880 o         1 MOL     -0.464069
     52 C18         7.8850   -4.3050   -1.1570 c3        1 MOL     -0.168815
     53 C19         8.1000   -4.0530   -2.6900 c         1 MOL      0.575702
     54 N6          7.7880   -5.0270   -3.5190 n         1 MOL     -0.761478
     55 O11         8.5190   -2.9390   -3.0330 o         1 MOL     -0.479539
     56 H20         8.3560   -1.9100   -0.8580 hn        1 MOL      0.312934
     57 H21         6.4750   -3.7190    0.4400 h1        1 MOL      0.045537
     58 H22         7.5040   -5.3130   -0.9730 hc        1 MOL      0.048749
     59 H23         8.8220   -4.2740   -0.6010 hc        1 MOL      0.048749
     60 H24         7.3820   -5.8870   -3.1680 hn        1 MOL      0.374985
     61 H25         7.9360   -4.7790   -4.4830 hn        1 MOL      0.374985
     62 N7          4.9670   -4.1740   -1.8450 n         1 MOL     -0.323542
     63 C20         3.9140   -4.1380   -2.8740 c3        1 MOL     -0.294717
     64 C21         2.4740   -4.2620   -2.3280 c         1 MOL      0.563245
     65 O12         1.5790   -4.4270   -3.1300 o         1 MOL     -0.554525
     66 H26         5.4910   -5.0350   -1.7550 hn        1 MOL      0.218184
     67 H27         4.1680   -4.9650   -3.5350 h1        1 MOL      0.156190
     68 H28         3.9310   -3.2470   -3.5050 h1        1 MOL      0.156190
     69 N8          2.2350   -4.3100   -1.0060 n         1 MOL     -0.133336
     70 C22         0.9620   -4.7150   -0.3880 c3        1 MOL     -0.164670
     71 C23        -0.1420   -3.7100   -0.4840 c         1 MOL      0.222534
     72 O13        -0.0200   -2.5400   -0.0910 o         1 MOL     -0.357005
     73 C24         1.1300   -5.3390    0.9610 c3        1 MOL      0.278963
     74 C25        -0.1400   -5.9280    1.6520 c3        1 MOL     -0.393982
     75 O14         2.0040   -6.4200    0.7690 oh        1 MOL     -0.616389
     76 H29         3.0770   -4.4200   -0.4520 hn        1 MOL      0.111441
     77 H30         0.5480   -5.5820   -0.9130 h1        1 MOL      0.123798
     78 H31         1.5680   -4.5810    1.6110 h1        1 MOL      0.024413
     79 H32         2.1800   -6.7940    1.6410 ho        1 MOL      0.395132
     80 H33        -0.7140   -6.4720    0.9040 hc        1 MOL      0.125491
     81 H34         0.0870   -6.5670    2.5130 hc        1 MOL      0.125491
     82 H35        -0.8200   -5.1630    2.0260 hc        1 MOL      0.125491
     83 N9         -1.3460   -4.1640   -0.9600 n         1 MOL     -0.211153
     84 C26        -2.6240   -3.4760   -0.9560 c3        1 MOL     -0.183669
     85 C27        -3.1610   -3.4650    0.4740 c         1 MOL      0.333826
     86 O15        -3.6690   -4.4780    0.9530 o         1 MOL     -0.513603
     87 C28        -3.5630   -4.0430   -1.9870 c3        1 MOL      0.143259
     88 C29        -5.0350   -3.4720   -1.9090 c3        1 MOL      0.172301
     89 C30        -2.9440   -4.0390   -3.4150 c3        1 MOL     -0.271748
     90 C31        -6.0560   -4.2620   -2.7650 c3        1 MOL     -0.358117
     91 H36        -1.3550   -5.1210   -1.2930 hn        1 MOL      0.274989
     92 H37        -2.4000   -2.4730   -1.3150 h1        1 MOL      0.295064
     93 H38        -3.6560   -5.0610   -1.5860 hc        1 MOL     -0.018138
     94 H39        -5.1210   -2.4080   -2.1290 hc        1 MOL     -0.004034
     95 H40        -5.3580   -3.6120   -0.8850 hc        1 MOL     -0.004034
     96 H41        -2.6920   -3.0210   -3.7000 hc        1 MOL      0.053711
     97 H42        -2.0500   -4.6610   -3.3640 hc        1 MOL      0.053711
     98 H43        -3.7080   -4.3560   -4.1290 hc        1 MOL      0.053711
     99 H44        -6.1440   -5.2760   -2.3950 hc        1 MOL      0.080986
    100 H45        -7.0480   -3.8570   -2.5540 hc        1 MOL      0.080986
    101 H46        -5.8520   -4.1590   -3.8260 hc        1 MOL      0.080986
    102 N10        -3.0570   -2.2980    1.1810 n         1 MOL     -0.023187
    103 C32        -3.6370   -2.1130    2.5070 c3        1 MOL     -0.037360
    104 C33        -4.8920   -1.2310    2.4980 c         1 MOL      0.453601
    105 O16        -5.6810   -1.0840    3.4790 o         1 MOL     -0.579228
    106 C34        -2.5730   -1.3760    3.3010 c3        1 MOL      0.048412
    107 C35        -1.4180   -2.2470    3.6780 c         1 MOL      0.633883
    108 O17        -0.3050   -1.9140    3.2230 o         1 MOL     -0.682435
    109 O18        -1.6470   -3.2430    4.4050 o         1 MOL     -0.682435
    110 H47        -2.7270   -1.4780    0.6940 hn        1 MOL      0.014517
    111 H48        -3.8270   -3.0400    3.0480 h1        1 MOL      0.103562
    112 H49        -3.0960   -0.9380    4.1580 hc        1 MOL     -0.004332
    113 H50        -2.2710   -0.5260    2.6900 hc        1 MOL     -0.004332
    114 N11        -5.2730   -0.6720    1.4090 n         1 MOL     -0.349984
    115 C36        -6.3730    0.3260    1.2190 c3        1 MOL      0.249122
    116 C37        -6.1090    1.3960    0.1360 c         1 MOL      0.379494
    117 O19        -6.6640    1.2100   -0.9600 o         1 MOL     -0.477684
    118 C38        -7.6370   -0.5040    0.8860 c3        1 MOL     -0.049910
    119 C39        -8.9780    0.1440    1.0110 ca        1 MOL      0.085534
    120 C40        -9.5800    0.1790    2.2780 ca        1 MOL     -0.210169
    121 C41        -9.5580    0.8160   -0.1050 ca        1 MOL     -0.210169
    122 C42       -10.7960    0.9720    2.3720 ca        1 MOL     -0.071211
    123 C43       -10.7630    1.5280    0.0620 ca        1 MOL     -0.071211
    124 C44       -11.4220    1.5810    1.2930 ca        1 MOL     -0.176221
    125 H51        -4.6100   -0.6910    0.6410 hn        1 MOL      0.093506
    126 H52        -6.5650    0.7850    2.1860 h1        1 MOL      0.008051
    127 H53        -7.6670   -1.2890    1.6360 hc        1 MOL      0.040855
    128 H54        -7.5220   -1.1030   -0.0190 hc        1 MOL      0.040855
    129 H55        -9.2890   -0.4010    3.1530 ha        1 MOL      0.146916
    130 H56        -9.1210    0.8830   -1.0830 ha        1 MOL      0.146916
    131 H57       -11.2670    0.9980    3.3410 ha        1 MOL      0.079362
    132 H58       -11.3530    1.9810   -0.7250 ha        1 MOL      0.079362
    133 H59       -12.4140    2.0000    1.3380 ha        1 MOL      0.110543
    134 N12        -5.1800    2.3320    0.4360 n         1 MOL     -0.213425
    135 C45        -4.8240    3.5630   -0.3410 c3        1 MOL     -0.017608
    136 C46        -4.4420    3.3140   -1.8360 c         1 MOL      0.212143
    137 O20        -4.8020    4.1670   -2.7150 o         1 MOL     -0.487453
    138 C47        -3.5520    4.0250    0.3700 c3        1 MOL      0.026460
    139 C48        -3.8200    3.6460    1.8190 c3        1 MOL     -0.268443
    140 C49        -4.2550    2.2140    1.5890 c3        1 MOL     -0.094912
    141 H60        -5.6410    4.2620   -0.1480 h1        1 MOL      0.103303
    142 H61        -2.6670    3.5560   -0.0560 hc        1 MOL      0.040152
    143 H62        -3.4410    5.1040    0.2300 hc        1 MOL      0.040152
    144 H63        -2.9670    3.7490    2.4880 hc        1 MOL      0.103416
    145 H64        -4.5820    4.2670    2.2860 hc        1 MOL      0.103416
    146 H65        -3.3560    1.6340    1.3850 h1        1 MOL      0.140777
    147 H66        -4.7920    1.8590    2.4670 h1        1 MOL      0.140777
    148 N13        -3.9380    2.1230   -2.0860 n         1 MOL      0.021820
    149 C50        -3.5090    1.6950   -3.4320 c3        1 MOL     -0.263659
    150 C51        -4.7070    1.4580   -4.3540 c         1 MOL      0.483672
    151 O21        -4.7410    1.9370   -5.4610 o         1 MOL     -0.533756
    152 C52        -2.5830    0.4130   -3.2990 c3        1 MOL      0.094513
    153 C53        -1.4230    0.4660   -2.2610 c3        1 MOL     -0.330892
    154 C54        -1.9590    0.2860   -0.7840 c         1 MOL      0.123879
    155 O22        -1.0460    0.5560    0.0680 o         1 MOL     -0.504869
    156 O23        -3.1210   -0.1570   -0.5880 o         1 MOL     -0.504869
    157 H67        -3.7460    1.4280   -1.3760 hn        1 MOL      0.426131
    158 H68        -2.9620    2.5400   -3.8510 h1        1 MOL      0.120487
    159 H69        -2.0030    0.2690   -4.2080 hc        1 MOL     -0.004593
    160 H70        -3.2630   -0.3990   -3.0300 hc        1 MOL     -0.004593
    161 H71        -0.7800    1.3180   -2.4930 hc        1 MOL      0.146853
    162 H72        -0.8400   -0.4490   -2.4130 hc        1 MOL      0.146853
    163 N14        -5.7640    0.8210   -3.8320 n         1 MOL     -0.136920
    164 C55        -7.0350    0.6160   -4.5280 c3        1 MOL     -0.444931
    165 H73        -7.4960    1.5820   -4.7330 h1        1 MOL      0.152073
    166 H74        -6.8550    0.0930   -5.4670 h1        1 MOL      0.152073
    167 H75        -7.7010    0.0220   -3.9010 h1        1 MOL      0.152073
    168 H76        -5.6630    0.6420   -2.8390 hn        1 MOL      0.172221
    169 Ca1         1.1500   -0.4520    1.5320 Ca        1 MOL      1.660218
    170 O24         2.3690   -1.1280   -0.6190 oh        1 MOL     -0.828198
    171 H77         3.2210   -0.9570   -1.0100 ho        1 MOL      0.390515
    172 H78         1.8840   -1.5840   -1.2980 ho        1 MOL      0.390515
    173 O25         2.6020   -2.4690    2.4710 oh        1 MOL     -0.828198
    174 H79         3.3190   -3.0420    2.1800 ho        1 MOL      0.390515
    175 H80         2.0230   -3.0430    2.9790 ho        1 MOL      0.390515
    176 O26         1.5590    1.7980    0.5340 oh        1 MOL     -0.828198
    177 H81         0.9160    2.4160    0.8720 ho        1 MOL      0.390515
    178 H82         2.0810    2.3080   -0.0900 ho        1 MOL      0.390515
    179 O27        -0.8020    1.6850    2.3570 oh        1 MOL     -0.828198
    180 H83        -0.3440    2.5170    2.4150 ho        1 MOL      0.390515
    181 H84        -0.9990    1.5860    1.4290 ho        1 MOL      0.390515
@<TRIPOS>BOND
     1    1    2 1   
     2    1    4 1   
     3    1    5 1   
     4    1    6 1   
     5    2    3 2   
     6    2    7 1   
     7    7    8 1   
     8    7   15 1   
     9    8    9 1   
    10    8   11 1   
    11    8   16 1   
    12    9   10 2   
    13    9   19 1   
    14   11   12 1   
    15   11   17 1   
    16   11   18 1   
    17   12   13 1   
    18   12   14 1   
    19   19   20 1   
    20   19   24 1   
    21   20   21 1   
    22   20   23 1   
    23   20   25 1   
    24   21   22 2   
    25   21   29 1   
    26   23   26 1   
    27   23   27 1   
    28   23   28 1   
    29   29   30 1   
    30   29   37 1   
    31   30   31 1   
    32   30   33 1   
    33   30   38 1   
    34   31   32 2   
    35   31   41 1   
    36   33   34 1   
    37   33   39 1   
    38   33   40 1   
    39   34   35 1   
    40   34   36 1   
    41   41   42 1   
    42   41   45 1   
    43   42   43 1   
    44   42   46 1   
    45   42   47 1   
    46   43   44 2   
    47   43   48 1   
    48   48   49 1   
    49   48   56 1   
    50   49   50 1   
    51   49   52 1   
    52   49   57 1   
    53   50   51 2   
    54   50   62 1   
    55   52   53 1   
    56   52   58 1   
    57   52   59 1   
    58   53   54 1   
    59   53   55 2   
    60   54   60 1   
    61   54   61 1   
    62   62   63 1   
    63   62   66 1   
    64   63   64 1   
    65   63   67 1   
    66   63   68 1   
    67   64   65 2   
    68   64   69 1   
    69   69   70 1   
    70   69   76 1   
    71   70   71 1   
    72   70   73 1   
    73   70   77 1   
    74   71   72 2   
    75   71   83 1   
    76   73   74 1   
    77   73   75 1   
    78   73   78 1   
    79   74   80 1   
    80   74   81 1   
    81   74   82 1   
    82   75   79 1   
    83   83   84 1   
    84   83   91 1   
    85   84   85 1   
    86   84   87 1   
    87   84   92 1   
    88   85   86 2   
    89   85  102 1   
    90   87   88 1   
    91   87   89 1   
    92   87   93 1   
    93   88   90 1   
    94   88   94 1   
    95   88   95 1   
    96   89   96 1   
    97   89   97 1   
    98   89   98 1   
    99   90   99 1   
   100   90  100 1   
   101   90  101 1   
   102  102  103 1   
   103  102  110 1   
   104  103  104 1   
   105  103  106 1   
   106  103  111 1   
   107  104  105 2   
   108  104  114 1   
   109  106  107 1   
   110  106  112 1   
   111  106  113 1   
   112  107  108 1   
   113  107  109 1   
   114  114  115 1   
   115  114  125 1   
   116  115  116 1   
   117  115  118 1   
   118  115  126 1   
   119  116  117 2   
   120  116  134 1   
   121  118  119 1   
   122  118  127 1   
   123  118  128 1   
   124  119  120 ar  
   125  119  121 ar  
   126  120  122 ar  
   127  120  129 1   
   128  121  123 ar  
   129  121  130 1   
   130  122  124 ar  
   131  122  131 1   
   132  123  124 ar  
   133  123  132 1   
   134  124  133 1   
   135  134  135 1   
   136  134  140 1   
   137  135  136 1   
   138  135  138 1   
   139  135  141 1   
   140  136  137 2   
   141  136  148 1   
   142  138  139 1   
   143  138  142 1   
   144  138  143 1   
   145  139  140 1   
   146  139  144 1   
   147  139  145 1   
   148  140  146 1   
   149  140  147 1   
   150  148  149 1   
   151  148  157 1   
   152  149  150 1   
   153  149  152 1   
   154  149  158 1   
   155  150  151 2   
   156  150  163 1   
   157  152  153 1   
   158  152  159 1   
   159  152  160 1   
   160  153  154 1   
   161  153  161 1   
   162  153  162 1   
   163  154  155 1   
   164  154  156 1   
   165  163  164 1   
   166  163  168 1   
   167  164  165 1   
   168  164  166 1   
   169  164  167 1   
   170  170  171 1   
   171  170  172 1   
   172  173  174 1   
   173  173  175 1   
   174  176  177 1   
   175  176  178 1   
   176  179  180 1   
   177  179  181 1   
@<TRIPOS>SUBSTRUCTURE
     1 MOL         1 TEMP              0 ****  ****    0 ROOT
