@<TRIPOS>MOLECULE
MOL
  192   187     1     0     0
SMALL
resp


@<TRIPOS>ATOM
      1 C1          9.2110   -0.0460    1.9700 c3        1 MOL     -0.625695
      2 C2          7.9570   -0.2120    1.0770 c         1 MOL      0.835468
      3 O1          6.7900   -0.1290    1.5080 o         1 MOL     -0.706382
      4 H1          9.1460    0.8950    2.5160 hc        1 MOL      0.156003
      5 H2          9.2660   -0.8730    2.6790 hc        1 MOL      0.156003
      6 H3         10.1040   -0.0420    1.3460 hc        1 MOL      0.156003
      7 N1          8.2620   -0.5090   -0.1860 n         1 MOL     -0.663028
      8 C3          7.3740   -0.6150   -1.3130 c3        1 MOL      0.090663
      9 C4          6.6950   -1.9720   -1.3910 c         1 MOL      0.586758
     10 O2          6.4950   -2.4660   -2.5030 o         1 MOL     -0.511050
     11 C5          8.2280   -0.2810   -2.5390 c3        1 MOL     -0.272166
     12 C6          8.9060    1.1090   -2.6520 c         1 MOL      0.772276
     13 O3          8.3450    2.1200   -3.0710 o         1 MOL     -0.644409
     14 O4         10.1260    1.0910   -2.4870 o         1 MOL     -0.644409
     15 H4          9.2570   -0.6420   -0.2950 hn        1 MOL      0.321242
     16 H5          6.5710    0.1100   -1.2000 h1        1 MOL      0.105789
     17 H6          7.4150   -0.2960   -3.2600 hc        1 MOL      0.069546
     18 H7          8.9380   -1.0880   -2.6660 hc        1 MOL      0.069546
     19 N2          6.4910   -2.6000   -0.2090 n         1 MOL     -0.415070
     20 C7          5.9020   -3.9800   -0.0470 c3        1 MOL     -0.079733
     21 C8          4.4370   -4.1460   -0.4560 c         1 MOL      0.601832
     22 O5          4.0910   -5.1540   -1.0400 o         1 MOL     -0.539132
     23 C9          6.1000   -4.4100    1.3910 c3        1 MOL      0.026196
     24 C10         7.6410   -4.5430    1.7230 c3        1 MOL      0.003352
     25 C11         7.9240   -5.1030    3.1570 c3        1 MOL     -0.092302
     26 C12         9.4630   -5.1400    3.4480 c3        1 MOL     -0.021512
     27 N3          9.7450   -5.3980    4.8290 n4        1 MOL     -0.149291
     28 H8          6.7450   -2.1300    0.6420 hn        1 MOL      0.309462
     29 H9          6.5360   -4.6690   -0.6140 h1        1 MOL      0.098535
     30 H10         5.5750   -5.3480    1.5640 hc        1 MOL      0.001059
     31 H11         5.6320   -3.6990    2.0750 hc        1 MOL      0.001059
     32 H12         7.9820   -3.5160    1.6350 hc        1 MOL      0.008460
     33 H13         8.1510   -5.1850    1.0050 hc        1 MOL      0.008460
     34 H14         7.4950   -6.1040    3.2090 hc        1 MOL      0.060099
     35 H15         7.4930   -4.5750    4.0130 hc        1 MOL      0.060099
     36 H16         9.9570   -4.2400    3.0750 hx        1 MOL      0.089364
     37 H17         9.7590   -6.0210    2.8820 hx        1 MOL      0.089364
     38 H18         9.4250   -4.6650    5.4420 hn        1 MOL      0.227014
     39 H19         9.3950   -6.2890    5.1350 hn        1 MOL      0.227014
     40 H20        10.7490   -5.4690    4.9670 hn        1 MOL      0.227014
     41 N4          3.5320   -3.2400   -0.0050 n         1 MOL     -0.559963
     42 C13         3.6090   -1.9670    0.6890 c3        1 MOL      0.515109
     43 C14         3.8760   -0.7880   -0.3110 c         1 MOL      0.278658
     44 O6          3.9060   -0.9290   -1.5440 o         1 MOL     -0.445994
     45 C15         2.2620   -1.7520    1.4400 c3        1 MOL     -0.841006
     46 C16         1.1420   -1.9400    0.4480 c         1 MOL      0.683764
     47 O7          0.9710   -1.1100   -0.4920 o         1 MOL     -0.586650
     48 O8          0.3160   -2.8080    0.7460 o         1 MOL     -0.586650
     49 H21         2.5960   -3.4710   -0.3100 hn        1 MOL      0.338677
     50 H22         4.4200   -1.9400    1.4180 h1        1 MOL     -0.004943
     51 H23         2.2210   -0.7950    1.9520 hc        1 MOL      0.193446
     52 H24         2.2560   -2.5330    2.2060 hc        1 MOL      0.193446
     53 N5          4.1340    0.3480    0.3140 n         1 MOL     -0.155128
     54 C17         4.3270    1.6810   -0.2600 c3        1 MOL     -0.026507
     55 C18         2.9920    2.3840   -0.8130 c         1 MOL      0.570971
     56 O9          1.8680    1.9050   -0.7750 o         1 MOL     -0.651561
     57 H25         4.1850    0.3510    1.3220 hn        1 MOL      0.221862
     58 H26         4.9850    1.5640   -1.1290 h1        1 MOL      0.066128
     59 H27         4.9500    2.2860    0.4010 h1        1 MOL      0.066128
     60 N6          3.1960    3.5790   -1.4170 n         1 MOL     -0.484722
     61 C19         2.1150    4.5540   -1.9030 c3        1 MOL      0.396421
     62 C20         2.6210    5.9980   -1.7810 c         1 MOL      0.259062
     63 O10         3.8330    6.2910   -1.9920 o         1 MOL     -0.488580
     64 C21         1.8670    4.2200   -3.3660 c3        1 MOL     -0.295656
     65 C22         1.3050    2.8370   -3.6450 c         1 MOL      0.731540
     66 O11         0.2420    2.5590   -3.1150 o         1 MOL     -0.687825
     67 O12         1.9090    2.1130   -4.4730 o         1 MOL     -0.687825
     68 H28         4.1710    3.7690   -1.5840 hn        1 MOL      0.284911
     69 H29         1.1860    4.4830   -1.3380 h1        1 MOL      0.058416
     70 H30         2.8510    4.2680   -3.8460 hc        1 MOL      0.070924
     71 H31         1.1620    4.9480   -3.7710 hc        1 MOL      0.070924
     72 N7          1.7800    7.0480   -1.5940 n         1 MOL     -0.273032
     73 C23         0.2690    7.1520   -1.5730 c3        1 MOL     -0.121835
     74 C24        -0.4140    6.5300   -0.3870 c         1 MOL      0.611135
     75 O13         0.1100    6.7870    0.7360 o         1 MOL     -0.528064
     76 H32         2.2580    7.9350   -1.5140 hn        1 MOL      0.287681
     77 H33        -0.1410    6.6830   -2.4630 h1        1 MOL      0.066263
     78 H34        -0.0080    8.2040   -1.5460 h1        1 MOL      0.066263
     79 N8         -1.5050    5.7970   -0.5740 n         1 MOL     -0.564135
     80 C25        -2.1790    5.0200    0.4310 c3        1 MOL      0.091340
     81 C26        -1.3890    3.7760    0.7720 c         1 MOL     -0.028970
     82 O14        -0.8890    3.0580   -0.1400 o         1 MOL     -0.434672
     83 C27        -3.6350    4.6700   -0.0550 c3        1 MOL      0.326830
     84 C28        -4.4410    4.0260    1.0800 c3        1 MOL     -0.265342
     85 O15        -3.5120    3.7640   -1.1720 oh        1 MOL     -0.657462
     86 H35        -1.8700    5.8340   -1.5150 hn        1 MOL      0.358201
     87 H36        -2.3840    5.5960    1.3320 h1        1 MOL      0.103080
     88 H37        -4.1120    5.6090   -0.3440 h1        1 MOL      0.025314
     89 H38        -4.1490    3.9640   -1.8610 ho        1 MOL      0.414989
     90 H39        -4.3590    4.6780    1.9570 hc        1 MOL      0.086641
     91 H40        -5.5070    3.9520    0.8860 hc        1 MOL      0.086641
     92 H41        -3.9710    3.0970    1.3910 hc        1 MOL      0.086641
     93 N9         -1.1120    3.6100    2.0700 n         1 MOL     -0.338650
     94 C29        -0.3330    2.5460    2.7910 c3        1 MOL     -0.004626
     95 C30        -0.8540    1.1680    2.3280 c         1 MOL      0.652719
     96 O16        -0.3290    0.5530    1.3470 o         1 MOL     -0.589950
     97 C31         1.1940    2.6600    2.7140 c3        1 MOL      0.189095
     98 C32         1.6660    4.0950    2.5070 c3        1 MOL      0.056948
     99 C33         1.8410    1.8720    3.8900 c3        1 MOL     -0.360315
    100 C34         3.1830    4.3060    2.4530 c3        1 MOL     -0.189057
    101 H42        -1.3980    4.3550    2.6850 hn        1 MOL      0.316158
    102 H43        -0.6760    2.6770    3.8120 h1        1 MOL      0.030663
    103 H44         1.5360    2.1280    1.8260 hc        1 MOL      0.008208
    104 H45         1.2080    4.7220    3.2770 hc        1 MOL      0.006873
    105 H46         1.3490    4.3690    1.5020 hc        1 MOL      0.006873
    106 H47         2.6790    1.2910    3.5080 hc        1 MOL      0.088911
    107 H48         2.1670    2.5350    4.6910 hc        1 MOL      0.088911
    108 H49         1.1040    1.1810    4.3000 hc        1 MOL      0.088911
    109 H50         3.7130    4.0490    3.3690 hc        1 MOL      0.045393
    110 H51         3.6560    3.8770    1.5600 hc        1 MOL      0.045393
    111 H52         3.2490    5.3860    2.3190 hc        1 MOL      0.045393
    112 N10        -1.8970    0.6640    2.9770 n         1 MOL     -0.297136
    113 C35        -2.4940   -0.7330    2.8360 c3        1 MOL     -0.303836
    114 C36        -4.0230   -0.7790    2.9770 c         1 MOL      0.732434
    115 O17        -4.5950   -1.8140    3.1400 o         1 MOL     -0.591766
    116 C37        -1.7610   -1.8200    3.7290 c3        1 MOL      0.325724
    117 C38        -1.7980   -1.4420    5.1790 c3        1 MOL     -0.283161
    118 O18        -0.4190   -1.8580    3.3280 oh        1 MOL     -0.497094
    119 H53        -2.3190    1.2300    3.6930 hn        1 MOL      0.208873
    120 H54        -2.4150   -1.0030    1.7870 h1        1 MOL      0.176022
    121 H55        -2.1270   -2.8240    3.4960 h1        1 MOL      0.037164
    122 H56        -0.4250   -2.3010    2.4750 ho        1 MOL      0.327241
    123 H57        -1.2120   -0.5590    5.4080 hc        1 MOL      0.071052
    124 H58        -2.8530   -1.2810    5.4130 hc        1 MOL      0.071052
    125 H59        -1.3850   -2.1930    5.8410 hc        1 MOL      0.071052
    126 N11        -4.7850    0.3150    2.9240 n         1 MOL     -0.399771
    127 C39        -6.2750    0.4190    2.9390 c3        1 MOL     -0.064138
    128 C40        -6.8520   -0.1690    1.6060 c         1 MOL      0.619978
    129 O19        -7.1790    0.6030    0.7350 o         1 MOL     -0.550779
    130 C41        -6.7700    1.8400    3.0670 c3        1 MOL      0.331970
    131 C42        -8.2220    1.9270    3.4800 c3        1 MOL     -0.301736
    132 O20        -6.0830    2.5030    4.0230 oh        1 MOL     -0.613587
    133 H60        -4.2610    1.1460    2.6570 hn        1 MOL      0.240735
    134 H61        -6.6020   -0.1760    3.7810 h1        1 MOL      0.080986
    135 H62        -6.6240    2.3050    2.0950 h1        1 MOL      0.030391
    136 H63        -6.7390    2.5040    4.7290 ho        1 MOL      0.392811
    137 H64        -8.3900    1.4170    4.4370 hc        1 MOL      0.072820
    138 H65        -8.6310    2.9180    3.5960 hc        1 MOL      0.072820
    139 H66        -8.8800    1.3800    2.7950 hc        1 MOL      0.072820
    140 N12        -6.6860   -1.4670    1.4700 n         1 MOL     -0.769504
    141 C43        -6.6390   -2.3200    0.2720 c3        1 MOL      0.410262
    142 C44        -5.4180   -2.0410   -0.6010 c         1 MOL      0.355440
    143 O21        -4.8110   -0.9660   -0.6010 o         1 MOL     -0.484501
    144 C45        -8.0130   -2.4670   -0.5390 c3        1 MOL     -0.230728
    145 C46        -9.1340   -2.7820    0.3970 c3        1 MOL      0.063131
    146 C47       -10.4690   -3.0430   -0.3190 c3        1 MOL      0.043421
    147 C48       -10.9240   -1.9840   -1.3250 c3        1 MOL      0.108644
    148 N13       -11.5630   -0.7800   -0.6890 n4        1 MOL     -0.315133
    149 H67        -6.1220   -1.8150    2.2320 hn        1 MOL      0.360170
    150 H68        -6.5460   -3.3540    0.5940 h1        1 MOL      0.029489
    151 H69        -7.8570   -3.2370   -1.2940 hc        1 MOL      0.063807
    152 H70        -8.2400   -1.5330   -1.0450 hc        1 MOL      0.063807
    153 H71        -9.2180   -1.9350    1.0770 hc        1 MOL     -0.000698
    154 H72        -8.9040   -3.6490    1.0150 hc        1 MOL     -0.000698
    155 H73       -11.3020   -3.0600    0.3900 hc        1 MOL      0.010944
    156 H74       -10.5100   -3.9930   -0.8430 hc        1 MOL      0.010944
    157 H75       -11.6670   -2.5090   -1.9350 hx        1 MOL      0.061692
    158 H76       -10.1720   -1.7630   -2.0650 hx        1 MOL      0.061692
    159 H77       -10.8520   -0.0790   -0.5380 hn        1 MOL      0.249829
    160 H78       -12.1920   -0.2570   -1.2920 hn        1 MOL      0.249829
    161 H79       -12.0670   -0.9620    0.1610 hn        1 MOL      0.249829
    162 N14        -5.0830   -2.9690   -1.4920 n         1 MOL     -0.333413
    163 C49        -3.8880   -2.9480   -2.2710 c3        1 MOL      0.014662
    164 C50        -2.5390   -2.6380   -1.5340 c         1 MOL      0.447944
    165 O22        -1.8480   -1.6710   -1.7390 o         1 MOL     -0.587803
    166 C51        -3.8870   -4.1130   -3.1580 c3        1 MOL     -0.004504
    167 C52        -5.1480   -4.1850   -4.0800 c3        1 MOL     -0.283487
    168 C53        -5.0460   -5.5050   -4.9030 c         1 MOL      0.695113
    169 O23        -4.6350   -5.3550   -6.0740 o         1 MOL     -0.656484
    170 O24        -5.3160   -6.5800   -4.3600 o         1 MOL     -0.656484
    171 H80        -5.6880   -3.7740   -1.5940 hn        1 MOL      0.245126
    172 H81        -4.0160   -2.1150   -2.9650 h1        1 MOL      0.084130
    173 H82        -3.8040   -5.0200   -2.5730 hc        1 MOL      0.073925
    174 H83        -3.0570   -4.1860   -3.8570 hc        1 MOL      0.073925
    175 H84        -5.2030   -3.2890   -4.6930 hc        1 MOL      0.043666
    176 H85        -6.1000   -4.0930   -3.5660 hc        1 MOL      0.043666
    177 N15        -2.0780   -3.3450   -0.4700 n         1 MOL     -0.196543
    178 C54        -2.6890   -4.5940    0.0760 c3        1 MOL     -0.044912
    179 H86        -2.8230   -5.3150   -0.7320 h1        1 MOL      0.022401
    180 H87        -2.0320   -5.0190    0.8360 h1        1 MOL      0.022401
    181 H88        -3.6580   -4.3630    0.5200 h1        1 MOL      0.022401
    182 H89        -1.1310   -3.1350   -0.1710 hn        1 MOL      0.230531
    183 Ca1        -0.4930    0.7760   -1.4250 Ca        1 MOL      1.804590
    184 O25        -2.6260    1.2450   -3.3620 oh        1 MOL     -0.878725
    185 H90        -3.5480    1.2910   -3.1060 ho        1 MOL      0.422413
    186 H91        -2.5820    1.7470   -4.1800 ho        1 MOL      0.422413
    187 O26         1.2090   -0.6080   -3.4820 oh        1 MOL     -0.878725
    188 H92         1.4640    0.2950   -3.6800 ho        1 MOL      0.422413
    189 H93         1.9760   -1.1280   -3.7000 ho        1 MOL      0.422413
    190 O27        -2.9240    0.8300   -0.3560 oh        1 MOL     -0.878725
    191 H94        -3.6060    0.1620   -0.4270 ho        1 MOL      0.422413
    192 H95        -3.3210    1.6180   -0.7390 ho        1 MOL      0.422413
@<TRIPOS>BOND
     1    1    2 1   
     2    1    4 1   
     3    1    5 1   
     4    1    6 1   
     5    2    3 2   
     6    2    7 1   
     7    7    8 1   
     8    7   15 1   
     9    8    9 1   
    10    8   11 1   
    11    8   16 1   
    12    9   10 2   
    13    9   19 1   
    14   11   12 1   
    15   11   17 1   
    16   11   18 1   
    17   12   13 1   
    18   12   14 1   
    19   19   20 1   
    20   19   28 1   
    21   20   21 1   
    22   20   23 1   
    23   20   29 1   
    24   21   22 2   
    25   21   41 1   
    26   23   24 1   
    27   23   30 1   
    28   23   31 1   
    29   24   25 1   
    30   24   32 1   
    31   24   33 1   
    32   25   26 1   
    33   25   34 1   
    34   25   35 1   
    35   26   27 1   
    36   26   36 1   
    37   26   37 1   
    38   27   38 1   
    39   27   39 1   
    40   27   40 1   
    41   41   42 1   
    42   41   49 1   
    43   42   43 1   
    44   42   45 1   
    45   42   50 1   
    46   43   44 2   
    47   43   53 1   
    48   45   46 1   
    49   45   51 1   
    50   45   52 1   
    51   46   47 1   
    52   46   48 1   
    53   53   54 1   
    54   53   57 1   
    55   54   55 1   
    56   54   58 1   
    57   54   59 1   
    58   55   56 2   
    59   55   60 1   
    60   60   61 1   
    61   60   68 1   
    62   61   62 1   
    63   61   64 1   
    64   61   69 1   
    65   62   63 2   
    66   62   72 1   
    67   64   65 1   
    68   64   70 1   
    69   64   71 1   
    70   65   66 1   
    71   65   67 1   
    72   72   73 1   
    73   72   76 1   
    74   73   74 1   
    75   73   77 1   
    76   73   78 1   
    77   74   75 2   
    78   74   79 1   
    79   79   80 1   
    80   79   86 1   
    81   80   81 1   
    82   80   83 1   
    83   80   87 1   
    84   81   82 2   
    85   81   93 1   
    86   83   84 1   
    87   83   85 1   
    88   83   88 1   
    89   84   90 1   
    90   84   91 1   
    91   84   92 1   
    92   85   89 1   
    93   93   94 1   
    94   93  101 1   
    95   94   95 1   
    96   94   97 1   
    97   94  102 1   
    98   95   96 2   
    99   95  112 1   
   100   97   98 1   
   101   97   99 1   
   102   97  103 1   
   103   98  100 1   
   104   98  104 1   
   105   98  105 1   
   106   99  106 1   
   107   99  107 1   
   108   99  108 1   
   109  100  109 1   
   110  100  110 1   
   111  100  111 1   
   112  112  113 1   
   113  112  119 1   
   114  113  114 1   
   115  113  116 1   
   116  113  120 1   
   117  114  115 2   
   118  114  126 1   
   119  116  117 1   
   120  116  118 1   
   121  116  121 1   
   122  117  123 1   
   123  117  124 1   
   124  117  125 1   
   125  118  122 1   
   126  126  127 1   
   127  126  133 1   
   128  127  128 1   
   129  127  130 1   
   130  127  134 1   
   131  128  129 2   
   132  128  140 1   
   133  130  131 1   
   134  130  132 1   
   135  130  135 1   
   136  131  137 1   
   137  131  138 1   
   138  131  139 1   
   139  132  136 1   
   140  140  141 1   
   141  140  149 1   
   142  141  142 1   
   143  141  144 1   
   144  141  150 1   
   145  142  143 2   
   146  142  162 1   
   147  144  145 1   
   148  144  151 1   
   149  144  152 1   
   150  145  146 1   
   151  145  153 1   
   152  145  154 1   
   153  146  147 1   
   154  146  155 1   
   155  146  156 1   
   156  147  148 1   
   157  147  157 1   
   158  147  158 1   
   159  148  159 1   
   160  148  160 1   
   161  148  161 1   
   162  162  163 1   
   163  162  171 1   
   164  163  164 1   
   165  163  166 1   
   166  163  172 1   
   167  164  165 2   
   168  164  177 1   
   169  166  167 1   
   170  166  173 1   
   171  166  174 1   
   172  167  168 1   
   173  167  175 1   
   174  167  176 1   
   175  168  169 1   
   176  168  170 1   
   177  177  178 1   
   178  177  182 1   
   179  178  179 1   
   180  178  180 1   
   181  178  181 1   
   182  184  185 1   
   183  184  186 1   
   184  187  188 1   
   185  187  189 1   
   186  190  191 1   
   187  190  192 1   
@<TRIPOS>SUBSTRUCTURE
     1 MOL         1 TEMP              0 ****  ****    0 ROOT
