@<TRIPOS>MOLECULE
MOL
  198   191     1     0     0
SMALL
resp


@<TRIPOS>ATOM
      1 C1          2.4760    6.2520   -0.6330 c3        1 MOL     -0.396652
      2 C2          4.0220    6.3520   -0.5660 c         1 MOL      0.646206
      3 O1          4.5440    7.1260    0.2450 o         1 MOL     -0.542163
      4 H1          2.1930    5.3300   -1.1410 hc        1 MOL      0.107780
      5 H2          2.0670    6.2500    0.3780 hc        1 MOL      0.107780
      6 H3          2.0800    7.1050   -1.1840 hc        1 MOL      0.107780
      7 N1          4.8080    5.7390   -1.4830 n         1 MOL     -0.612940
      8 C3          6.2720    5.5510   -1.4060 c3        1 MOL      0.222490
      9 C4          6.8230    4.6840   -0.2550 c         1 MOL      0.555262
     10 O2          6.1610    4.4330    0.7360 o         1 MOL     -0.506706
     11 C5          6.9880    6.8540   -1.6660 c3        1 MOL     -0.100751
     12 C6          8.4680    6.8190   -2.0210 c         1 MOL      0.691376
     13 O3          9.2100    7.7590   -1.6340 o         1 MOL     -0.715494
     14 O4          8.8600    5.7840   -2.6090 o         1 MOL     -0.715494
     15 H4          4.3950    5.2110   -2.2410 hn        1 MOL      0.317753
     16 H5          6.4800    4.9740   -2.3060 h1        1 MOL      0.012715
     17 H6          6.8850    7.5190   -0.8080 hc        1 MOL      0.025998
     18 H7          6.4830    7.3270   -2.5130 hc        1 MOL      0.025998
     19 N2          8.0750    4.1450   -0.4090 n         1 MOL     -0.582836
     20 C7          8.8410    3.2780    0.4670 c3        1 MOL      0.394138
     21 C8          8.1130    2.0320    0.9490 c         1 MOL      0.376587
     22 O5          8.3010    1.6810    2.0950 o         1 MOL     -0.517843
     23 C9          9.5710    4.0870    1.5430 c3        1 MOL     -0.326694
     24 C10        10.2930    5.3870    1.0210 c3        1 MOL      0.510304
     25 C11        10.7420    6.3050    2.1660 c3        1 MOL     -0.514085
     26 C12        11.3550    7.6230    1.7690 c3        1 MOL      0.018918
     27 N3         12.7130    7.5740    1.2250 n4        1 MOL     -0.358383
     28 H8          8.6020    4.5220   -1.1850 hn        1 MOL      0.238078
     29 H9          9.6750    2.8370   -0.0890 h1        1 MOL     -0.018744
     30 H10        10.2710    3.4250    2.0560 hc        1 MOL      0.076736
     31 H11         8.8430    4.4790    2.2490 hc        1 MOL      0.076736
     32 H12         9.6090    5.8750    0.3350 hc        1 MOL     -0.083849
     33 H13        11.1810    5.1020    0.4640 hc        1 MOL     -0.083849
     34 H14        11.3700    5.8710    2.9480 hc        1 MOL      0.142509
     35 H15         9.8420    6.5060    2.7550 hc        1 MOL      0.142509
     36 H16        11.3240    8.2700    2.6450 hx        1 MOL      0.127099
     37 H17        10.6490    8.0340    1.0450 hx        1 MOL      0.127099
     38 H18        13.2810    7.0480    1.8770 hn        1 MOL      0.325702
     39 H19        12.7670    7.0260    0.3670 hn        1 MOL      0.325702
     40 H20        13.1160    8.4820    1.0400 hn        1 MOL      0.325702
     41 N4          7.1590    1.5540    0.1090 n         1 MOL     -0.447803
     42 C13         6.4730    0.2560    0.2260 c3        1 MOL      0.182182
     43 C14         6.0820   -0.1900   -1.1590 c         1 MOL      0.442040
     44 O6          5.3150    0.4750   -1.8480 o         1 MOL     -0.527373
     45 C15         5.2830    0.3570    1.1930 c3        1 MOL     -0.115992
     46 C16         4.7460   -1.0120    1.5930 c         1 MOL      0.745279
     47 O7          5.3290   -2.1000    1.2800 o         1 MOL     -0.746838
     48 O8          3.6960   -1.0230    2.3020 o         1 MOL     -0.746838
     49 H21         7.0220    2.0290   -0.7620 hn        1 MOL      0.248046
     50 H22         7.2020   -0.4280    0.6600 h1        1 MOL      0.070262
     51 H23         4.4830    0.9590    0.7500 hc        1 MOL      0.079448
     52 H24         5.5720    0.8940    2.1040 hc        1 MOL      0.079448
     53 N5          6.5800   -1.3440   -1.7200 n         1 MOL     -0.436785
     54 C17         7.4540   -2.3770   -1.1240 c3        1 MOL      0.013233
     55 C18         7.0070   -3.8240   -1.3830 c         1 MOL      0.486591
     56 O9          7.5890   -4.5460   -2.1370 o         1 MOL     -0.549610
     57 H25         6.3550   -1.5000   -2.6920 hn        1 MOL      0.318538
     58 H26         7.4280   -2.2280   -0.0460 h1        1 MOL      0.045987
     59 H27         8.4770   -2.1690   -1.4260 h1        1 MOL      0.045987
     60 N6          5.9300   -4.2800   -0.7590 n         1 MOL     -0.185997
     61 C19         5.2020   -5.5760   -0.9810 c3        1 MOL     -0.117894
     62 C20         3.7050   -5.3130   -0.5630 c         1 MOL      0.534850
     63 O10         3.4860   -4.5610    0.3940 o         1 MOL     -0.633281
     64 C21         5.8330   -6.6990   -0.1200 c3        1 MOL      0.145118
     65 C22         6.1520   -6.3850    1.3250 c         1 MOL      0.664392
     66 O11         6.7490   -7.3010    1.9410 o         1 MOL     -0.724541
     67 O12         5.8630   -5.3100    1.8830 o         1 MOL     -0.724541
     68 H28         5.4840   -3.6740   -0.0920 hn        1 MOL      0.123610
     69 H29         5.2640   -5.8280   -2.0360 h1        1 MOL      0.070801
     70 H30         6.6350   -7.1130   -0.7230 hc        1 MOL     -0.028984
     71 H31         5.1410   -7.5500   -0.1360 hc        1 MOL     -0.028984
     72 N7          2.7460   -6.0490   -1.1400 n         1 MOL     -0.339526
     73 C23         1.3280   -5.8880   -0.7520 c3        1 MOL     -0.077956
     74 C24         0.6950   -4.6080   -1.3920 c         1 MOL      0.627096
     75 O13        -0.5450   -4.5190   -1.3940 o         1 MOL     -0.577785
     76 H32         3.0050   -6.6940   -1.8740 hn        1 MOL      0.277221
     77 H33         1.2110   -5.8170    0.3250 h1        1 MOL      0.085906
     78 H34         0.7590   -6.7750   -1.0490 h1        1 MOL      0.085906
     79 N8          1.4810   -3.7180   -1.9640 n         1 MOL     -0.502794
     80 C25         0.9140   -2.6640   -2.8160 c3        1 MOL      0.033640
     81 C26         0.1820   -1.5540   -2.0870 c         1 MOL      0.575267
     82 O14         0.4720   -1.2460   -0.8970 o         1 MOL     -0.516924
     83 C27         1.9820   -2.0680   -3.7790 c3        1 MOL      0.330046
     84 C28         3.0940   -1.2490   -2.9620 c3        1 MOL     -0.380409
     85 O15         2.6390   -3.1800   -4.3990 oh        1 MOL     -0.575692
     86 H35         2.4960   -3.7620   -1.8960 hn        1 MOL      0.254774
     87 H36         0.1400   -3.0460   -3.4790 h1        1 MOL      0.053097
     88 H37         1.4540   -1.4640   -4.5270 h1        1 MOL     -0.002585
     89 H38         1.9700   -3.4190   -5.0510 ho        1 MOL      0.362315
     90 H39         3.5110   -1.8720   -2.1690 hc        1 MOL      0.123710
     91 H40         3.8850   -1.1210   -3.7010 hc        1 MOL      0.123710
     92 H41         2.6300   -0.3180   -2.6260 hc        1 MOL      0.123710
     93 N9         -0.6460   -0.7840   -2.8820 n         1 MOL     -0.474364
     94 C29        -1.4510    0.4400   -2.3580 c3        1 MOL      0.070516
     95 C30        -2.7090   -0.0800   -1.6330 c         1 MOL      0.512834
     96 O16        -3.7840    0.5840   -1.6540 o         1 MOL     -0.559051
     97 C31        -1.6750    1.5090   -3.4240 c3        1 MOL      0.185195
     98 C32        -2.4650    1.0320   -4.6230 c3        1 MOL      0.103319
     99 C33        -0.2990    2.0100   -3.8910 c3        1 MOL     -0.203917
    100 C34        -3.3490    2.2230   -5.1470 c3        1 MOL     -0.260612
    101 H42        -0.8810   -1.1240   -3.8130 hn        1 MOL      0.226196
    102 H43        -0.9370    0.9160   -1.5270 h1        1 MOL      0.084609
    103 H44        -2.1830    2.3270   -2.9080 hc        1 MOL      0.010338
    104 H45        -3.1210    0.2150   -4.3270 hc        1 MOL     -0.008073
    105 H46        -1.8590    0.6810   -5.4510 hc        1 MOL     -0.008073
    106 H47         0.3160    1.1800   -4.2060 hc        1 MOL      0.031787
    107 H48        -0.3980    2.6900   -4.7400 hc        1 MOL      0.031787
    108 H49         0.2600    2.4850   -3.0830 hc        1 MOL      0.031787
    109 H50        -2.6300    2.9030   -5.6000 hc        1 MOL      0.063924
    110 H51        -3.9410    2.0220   -6.0470 hc        1 MOL      0.063924
    111 H52        -3.9640    2.7280   -4.4100 hc        1 MOL      0.063924
    112 N10        -2.6060   -1.2900   -1.0810 n         1 MOL     -0.469731
    113 C35        -3.7860   -1.9380   -0.5560 c3        1 MOL      0.078636
    114 C36        -4.9060   -2.3330   -1.5000 c         1 MOL      0.637426
    115 O17        -4.6320   -2.9840   -2.5250 o         1 MOL     -0.561755
    116 C37        -3.3730   -3.1250    0.3430 c3        1 MOL      0.295400
    117 C38        -2.3540   -2.7590    1.4300 c3        1 MOL     -0.268046
    118 O18        -4.4290   -3.9410    0.8840 oh        1 MOL     -0.653489
    119 H53        -1.7690   -1.8290   -1.2310 hn        1 MOL      0.238067
    120 H54        -4.2420   -1.1860    0.0970 h1        1 MOL      0.055217
    121 H55        -2.8490   -3.8170   -0.3230 h1        1 MOL      0.030457
    122 H56        -3.9130   -4.5090    1.4710 ho        1 MOL      0.400988
    123 H57        -2.8300   -2.4120    2.3470 hc        1 MOL      0.065937
    124 H58        -1.6640   -3.5910    1.6310 hc        1 MOL      0.065937
    125 H59        -1.6920   -1.9830    1.0540 hc        1 MOL      0.065937
    126 N11        -6.1480   -1.9460   -1.0910 n         1 MOL     -0.286176
    127 C39        -7.3500   -1.9620   -1.9930 c3        1 MOL     -0.276509
    128 C40        -8.2970   -0.7640   -1.6650 c         1 MOL      0.635687
    129 O19        -8.8690   -0.2170   -2.6340 o         1 MOL     -0.535079
    130 C41        -8.0380   -3.3270   -2.0420 c3        1 MOL      0.287423
    131 C42        -9.4100   -3.2360   -2.7640 c3        1 MOL     -0.404962
    132 O20        -8.2820   -3.7870   -0.7270 oh        1 MOL     -0.603429
    133 H60        -6.1620   -1.3640   -0.2680 hn        1 MOL      0.187901
    134 H61        -7.0580   -1.7110   -3.0160 h1        1 MOL      0.151395
    135 H62        -7.4580   -4.1230   -2.5170 h1        1 MOL      0.071807
    136 H63        -8.9380   -4.4840   -0.8280 ho        1 MOL      0.391493
    137 H64        -9.2930   -2.6760   -3.6950 hc        1 MOL      0.106169
    138 H65        -9.8110   -4.2210   -3.0000 hc        1 MOL      0.106169
    139 H66       -10.1810   -2.6830   -2.2180 hc        1 MOL      0.106169
    140 N12        -8.4160   -0.3320   -0.4070 n         1 MOL     -0.474496
    141 C43        -9.4630    0.6450   -0.0310 c3        1 MOL      0.019605
    142 C44        -9.1950    1.3820    1.3510 c         1 MOL      0.357361
    143 O21        -8.6380    0.8270    2.3060 o         1 MOL     -0.479587
    144 C45       -10.7590   -0.1810    0.0350 c3        1 MOL     -0.235244
    145 C46       -11.9950    0.6290    0.5720 c3        1 MOL      0.404100
    146 C47       -13.2830   -0.1910    0.3260 c3        1 MOL     -0.266952
    147 C48       -14.6370    0.4850    0.5470 c3        1 MOL      0.178832
    148 N13       -14.7520    1.8020   -0.0700 n4        1 MOL     -0.496903
    149 H67        -7.8040   -0.7620    0.2830 hn        1 MOL      0.352103
    150 H68        -9.6420    1.4160   -0.7730 h1        1 MOL      0.087572
    151 H69       -10.5920   -0.9540    0.7850 hc        1 MOL      0.084722
    152 H70       -10.9420   -0.7130   -0.8930 hc        1 MOL      0.084722
    153 H71       -12.0030    1.5810    0.0250 hc        1 MOL     -0.103648
    154 H72       -11.9020    0.8080    1.6330 hc        1 MOL     -0.103648
    155 H73       -13.2270   -1.0140    1.0480 hc        1 MOL      0.069031
    156 H74       -13.3020   -0.6930   -0.6410 hc        1 MOL      0.069031
    157 H75       -14.7620    0.5610    1.6240 hx        1 MOL      0.045994
    158 H76       -15.4540   -0.1690    0.2190 hx        1 MOL      0.045994
    159 H77       -13.9960    2.4110    0.2290 hn        1 MOL      0.341835
    160 H78       -14.6570    1.6850   -1.0700 hn        1 MOL      0.341835
    161 H79       -15.6270    2.2460    0.1610 hn        1 MOL      0.341835
    162 N14        -9.7320    2.5880    1.5050 n         1 MOL     -0.140722
    163 C49       -10.0500    3.2130    2.8210 c3        1 MOL      0.208269
    164 C50        -8.8230    3.6910    3.6030 c         1 MOL      0.269657
    165 O22        -8.7780    3.5660    4.8350 o         1 MOL     -0.504361
    166 C51       -11.0640    4.3860    2.6250 c3        1 MOL     -0.137337
    167 C52       -12.4780    3.9200    2.4790 c3        1 MOL     -0.035206
    168 C53       -13.2540    4.5320    1.3560 c         1 MOL      0.584030
    169 O23       -13.1090    4.1140    0.1980 o         1 MOL     -0.660354
    170 O24       -13.9450    5.5630    1.5770 o         1 MOL     -0.660354
    171 H80       -10.2140    3.0520    0.7490 hn        1 MOL      0.190414
    172 H81       -10.5940    2.5170    3.4600 h1        1 MOL      0.036040
    173 H82       -10.7380    5.0020    1.7900 hc        1 MOL      0.080383
    174 H83       -11.0110    4.9090    3.5850 hc        1 MOL      0.080383
    175 H84       -13.0170    4.0740    3.4160 hc        1 MOL     -0.000427
    176 H85       -12.5100    2.8530    2.2850 hc        1 MOL     -0.000427
    177 N15        -7.7140    4.2570    3.0550 n         1 MOL     -0.321282
    178 C54        -7.6170    4.6900    1.6430 c3        1 MOL      0.003236
    179 H86        -8.4570    4.2840    1.0810 h1        1 MOL      0.028865
    180 H87        -7.6390    5.7790    1.5940 h1        1 MOL      0.028865
    181 H88        -6.6840    4.3260    1.2140 h1        1 MOL      0.028865
    182 H89        -7.0160    4.5450    3.7230 hn        1 MOL      0.300227
    183 Ca1         3.9830   -3.7160    2.8950 Ca        1 MOL      1.762663
    184 O25         6.0870   -2.9660    4.4170 oh        1 MOL     -0.821999
    185 O26         4.6670   -5.4400    5.0310 oh        1 MOL     -0.821999
    186 H90         6.9560   -3.2080    4.0970 ho        1 MOL      0.410384
    187 H91         5.0820   -5.3640    5.8870 ho        1 MOL      0.410384
    188 H92         6.0030   -3.4190    5.2460 ho        1 MOL      0.410384
    189 H93         4.8240   -6.3520    4.7680 ho        1 MOL      0.410384
    190 O27         3.1500   -6.8970    2.6840 oh        1 MOL     -0.821999
    191 H94         3.8330   -7.3840    3.1500 ho        1 MOL      0.410384
    192 H95         2.9660   -7.4250    1.9050 ho        1 MOL      0.410384
    193 O28         1.7880   -4.9490    3.9900 oh        1 MOL     -0.821999
    194 H96         1.0650   -5.0460    4.6150 ho        1 MOL      0.410384
    195 H97         1.9540   -5.8400    3.6780 ho        1 MOL      0.410384
    196 O29         3.0360   -2.5240    5.3050 oh        1 MOL     -0.821999
    197 H98         2.3680   -3.0540    5.7500 ho        1 MOL      0.410384
    198 H99         3.1650   -1.7700    5.8920 ho        1 MOL      0.410384
@<TRIPOS>BOND
     1    1    2 1   
     2    1    4 1   
     3    1    5 1   
     4    1    6 1   
     5    2    3 2   
     6    2    7 1   
     7    7    8 1   
     8    7   15 1   
     9    8    9 1   
    10    8   11 1   
    11    8   16 1   
    12    9   10 2   
    13    9   19 1   
    14   11   12 1   
    15   11   17 1   
    16   11   18 1   
    17   12   13 1   
    18   12   14 1   
    19   19   20 1   
    20   19   28 1   
    21   20   21 1   
    22   20   23 1   
    23   20   29 1   
    24   21   22 2   
    25   21   41 1   
    26   23   24 1   
    27   23   30 1   
    28   23   31 1   
    29   24   25 1   
    30   24   32 1   
    31   24   33 1   
    32   25   26 1   
    33   25   34 1   
    34   25   35 1   
    35   26   27 1   
    36   26   36 1   
    37   26   37 1   
    38   27   38 1   
    39   27   39 1   
    40   27   40 1   
    41   41   42 1   
    42   41   49 1   
    43   42   43 1   
    44   42   45 1   
    45   42   50 1   
    46   43   44 2   
    47   43   53 1   
    48   45   46 1   
    49   45   51 1   
    50   45   52 1   
    51   46   47 1   
    52   46   48 1   
    53   53   54 1   
    54   53   57 1   
    55   54   55 1   
    56   54   58 1   
    57   54   59 1   
    58   55   56 2   
    59   55   60 1   
    60   60   61 1   
    61   60   68 1   
    62   61   62 1   
    63   61   64 1   
    64   61   69 1   
    65   62   63 2   
    66   62   72 1   
    67   64   65 1   
    68   64   70 1   
    69   64   71 1   
    70   65   66 1   
    71   65   67 1   
    72   72   73 1   
    73   72   76 1   
    74   73   74 1   
    75   73   77 1   
    76   73   78 1   
    77   74   75 2   
    78   74   79 1   
    79   79   80 1   
    80   79   86 1   
    81   80   81 1   
    82   80   83 1   
    83   80   87 1   
    84   81   82 2   
    85   81   93 1   
    86   83   84 1   
    87   83   85 1   
    88   83   88 1   
    89   84   90 1   
    90   84   91 1   
    91   84   92 1   
    92   85   89 1   
    93   93   94 1   
    94   93  101 1   
    95   94   95 1   
    96   94   97 1   
    97   94  102 1   
    98   95   96 2   
    99   95  112 1   
   100   97   98 1   
   101   97   99 1   
   102   97  103 1   
   103   98  100 1   
   104   98  104 1   
   105   98  105 1   
   106   99  106 1   
   107   99  107 1   
   108   99  108 1   
   109  100  109 1   
   110  100  110 1   
   111  100  111 1   
   112  112  113 1   
   113  112  119 1   
   114  113  114 1   
   115  113  116 1   
   116  113  120 1   
   117  114  115 2   
   118  114  126 1   
   119  116  117 1   
   120  116  118 1   
   121  116  121 1   
   122  117  123 1   
   123  117  124 1   
   124  117  125 1   
   125  118  122 1   
   126  126  127 1   
   127  126  133 1   
   128  127  128 1   
   129  127  130 1   
   130  127  134 1   
   131  128  129 2   
   132  128  140 1   
   133  130  131 1   
   134  130  132 1   
   135  130  135 1   
   136  131  137 1   
   137  131  138 1   
   138  131  139 1   
   139  132  136 1   
   140  140  141 1   
   141  140  149 1   
   142  141  142 1   
   143  141  144 1   
   144  141  150 1   
   145  142  143 2   
   146  142  162 1   
   147  144  145 1   
   148  144  151 1   
   149  144  152 1   
   150  145  146 1   
   151  145  153 1   
   152  145  154 1   
   153  146  147 1   
   154  146  155 1   
   155  146  156 1   
   156  147  148 1   
   157  147  157 1   
   158  147  158 1   
   159  148  159 1   
   160  148  160 1   
   161  148  161 1   
   162  162  163 1   
   163  162  171 1   
   164  163  164 1   
   165  163  166 1   
   166  163  172 1   
   167  164  165 2   
   168  164  177 1   
   169  166  167 1   
   170  166  173 1   
   171  166  174 1   
   172  167  168 1   
   173  167  175 1   
   174  167  176 1   
   175  168  169 1   
   176  168  170 1   
   177  177  178 1   
   178  177  182 1   
   179  178  179 1   
   180  178  180 1   
   181  178  181 1   
   182  184  186 1   
   183  184  188 1   
   184  185  187 1   
   185  185  189 1   
   186  190  191 1   
   187  190  192 1   
   188  193  194 1   
   189  193  195 1   
   190  196  197 1   
   191  196  198 1   
@<TRIPOS>SUBSTRUCTURE
     1 MOL         1 TEMP              0 ****  ****    0 ROOT
