@<TRIPOS>MOLECULE
MOL
  175   173     1     0     0
SMALL
resp


@<TRIPOS>ATOM
      1 C1         -6.4130    7.7450    2.1360 c3        1 MOL     -0.397986
      2 C2         -7.0420    6.9910    0.9830 c         1 MOL      0.673352
      3 O1         -6.7700    7.2610   -0.1750 o         1 MOL     -0.576336
      4 H1         -5.4890    7.2490    2.4320 hc        1 MOL      0.093360
      5 H2         -6.1940    8.7670    1.8250 hc        1 MOL      0.093360
      6 H3         -7.1030    7.7610    2.9800 hc        1 MOL      0.093360
      7 N1         -7.9740    6.0770    1.2600 n         1 MOL     -0.401752
      8 C3         -8.7780    5.4230    0.2290 c3        1 MOL      0.035632
      9 C4         -8.0000    4.5090   -0.7010 c         1 MOL      0.553355
     10 O2         -8.3350    4.2070   -1.9030 o         1 MOL     -0.541646
     11 C5         -9.8060    4.6480    1.0220 c3        1 MOL     -0.174797
     12 C6        -10.8500    3.9810    0.0750 c         1 MOL      0.667868
     13 O3        -11.6100    4.7670   -0.5860 o         1 MOL     -0.706294
     14 O4        -10.7840    2.7750   -0.0330 o         1 MOL     -0.706294
     15 H4         -8.1330    5.7170    2.1930 hn        1 MOL      0.254345
     16 H5         -9.3440    6.1270   -0.3750 h1        1 MOL      0.068233
     17 H6        -10.3350    5.3440    1.6820 hc        1 MOL     -0.000547
     18 H7         -9.3150    3.8920    1.6410 hc        1 MOL     -0.000547
     19 N2         -6.8720    4.0390   -0.1760 n         1 MOL     -0.449570
     20 C7         -5.8750    3.2200   -0.8720 c3        1 MOL      0.297286
     21 C8         -5.2550    2.3210    0.1680 c         1 MOL      0.406908
     22 O5         -4.7230    2.8220    1.1530 o         1 MOL     -0.545035
     23 C9         -4.8050    4.2090   -1.4760 c3        1 MOL     -0.212874
     24 H8         -6.6520    4.3960    0.7420 hn        1 MOL      0.207179
     25 H9         -6.3660    2.5780   -1.6130 h1        1 MOL      0.032362
     26 H10        -4.3020    4.7110   -0.6610 hc        1 MOL      0.063216
     27 H11        -4.0630    3.5880   -1.9850 hc        1 MOL      0.063216
     28 H12        -5.2460    4.8470   -2.2370 hc        1 MOL      0.063216
     29 N3         -5.0780    1.0200    0.0450 n         1 MOL     -0.187004
     30 C10        -5.6270    0.1280   -0.9570 c3        1 MOL     -0.336881
     31 C11        -5.7100   -1.2790   -0.4070 c         1 MOL      0.547384
     32 O6         -4.8670   -1.7440    0.3760 o         1 MOL     -0.436430
     33 C12        -4.7850    0.1410   -2.2290 c3        1 MOL      0.057400
     34 C13        -3.2410   -0.2140   -2.1300 c         1 MOL      0.531395
     35 O7         -2.4260    0.6680   -1.8260 o         1 MOL     -0.660914
     36 O8         -2.9410   -1.4400   -2.2330 o         1 MOL     -0.660914
     37 H13        -4.6040    0.5580    0.8120 hn        1 MOL      0.205761
     38 H14        -6.6250    0.5010   -1.1660 h1        1 MOL      0.152067
     39 H15        -4.9660    1.0580   -2.7840 hc        1 MOL      0.004651
     40 H16        -5.2010   -0.5870   -2.9320 hc        1 MOL      0.004651
     41 N4         -6.7620   -2.0370   -0.9270 n         1 MOL     -0.451097
     42 C14        -7.0370   -3.4630   -0.5070 c3        1 MOL      0.087871
     43 C15        -6.7770   -4.4550   -1.6810 c         1 MOL      0.577658
     44 O9         -7.7570   -4.9120   -2.2650 o         1 MOL     -0.563811
     45 H17        -7.2720   -1.6430   -1.7090 hn        1 MOL      0.326425
     46 H18        -8.0630   -3.5750   -0.1560 h1        1 MOL      0.035990
     47 H19        -6.3190   -3.7390    0.2630 h1        1 MOL      0.035990
     48 N5         -5.5360   -4.8110   -2.0850 n         1 MOL     -0.557956
     49 C16        -4.2690   -4.4480   -1.4600 c3        1 MOL      0.099177
     50 C17        -4.0130   -4.9940   -0.1050 c         1 MOL      0.537696
     51 O10        -3.9850   -6.2140    0.0240 o         1 MOL     -0.579583
     52 C18        -3.0710   -4.7030   -2.4360 c3        1 MOL     -0.066473
     53 C19        -1.7590   -4.3000   -1.8530 c         1 MOL      0.492618
     54 N6         -0.6530   -4.6780   -2.4090 n         1 MOL     -0.625948
     55 O11        -1.5870   -3.5820   -0.8780 o         1 MOL     -0.683372
     56 H20        -5.4130   -5.2320   -2.9920 hn        1 MOL      0.326676
     57 H21        -4.2850   -3.3720   -1.2620 h1        1 MOL      0.040680
     58 H22        -3.1820   -4.1340   -3.3590 hc        1 MOL      0.051976
     59 H23        -3.0230   -5.7540   -2.7360 hc        1 MOL      0.051976
     60 H24        -0.6630   -5.3050   -3.2060 hn        1 MOL      0.326689
     61 H25         0.2250   -4.4070   -1.9870 hn        1 MOL      0.326689
     62 N7         -3.7470   -4.2040    0.9120 n         1 MOL     -0.076386
     63 C20        -3.4990   -4.7030    2.2320 c3        1 MOL     -0.197037
     64 C21        -2.1300   -5.2840    2.4630 c         1 MOL      0.557556
     65 O12        -1.9510   -6.0390    3.4220 o         1 MOL     -0.560890
     66 H26        -3.7860   -3.2050    0.7580 hn        1 MOL      0.106434
     67 H27        -4.2330   -5.4790    2.4450 h1        1 MOL      0.082668
     68 H28        -3.7520   -3.9380    2.9670 h1        1 MOL      0.082668
     69 N8         -1.1500   -4.9940    1.5360 n         1 MOL     -0.402099
     70 C22         0.2900   -4.9710    1.8740 c3        1 MOL      0.291908
     71 C23         0.8970   -3.6140    1.7450 c         1 MOL      0.128132
     72 O13         0.2990   -2.7340    1.1120 o         1 MOL     -0.398261
     73 C24         1.0410   -6.0980    1.2120 c3        1 MOL      0.254209
     74 C25         0.7160   -7.4060    1.7750 c3        1 MOL     -0.442008
     75 O14         0.7120   -6.1350   -0.1560 oh        1 MOL     -0.588927
     76 H29        -1.3670   -4.4070    0.7360 hn        1 MOL      0.312366
     77 H30         0.3000   -5.1820    2.9420 h1        1 MOL     -0.017597
     78 H31         2.0930   -5.8830    1.3940 h1        1 MOL     -0.001748
     79 H32         1.3030   -5.5130   -0.5780 ho        1 MOL      0.421020
     80 H33         1.0320   -7.5010    2.8190 hc        1 MOL      0.114274
     81 H34        -0.3520   -7.6090    1.7660 hc        1 MOL      0.114274
     82 H35         1.1070   -8.2240    1.1670 hc        1 MOL      0.114274
     83 N9          2.0560   -3.4310    2.4610 n         1 MOL     -0.173666
     84 C26         2.9550   -2.3050    2.4690 c3        1 MOL      0.167298
     85 C27         4.0100   -2.7670    1.3830 c         1 MOL      0.168656
     86 O15         4.7560   -3.7000    1.5590 o         1 MOL     -0.500275
     87 C28         3.5340   -2.1060    3.9400 c3        1 MOL      0.289139
     88 C29         4.2150   -0.7440    3.9760 c3        1 MOL     -0.205674
     89 C30         2.4780   -2.1430    5.0530 c3        1 MOL     -0.427969
     90 C31         5.4200   -0.5400    3.0150 c3        1 MOL     -0.223632
     91 H36         2.4370   -4.2590    2.9000 hn        1 MOL      0.198271
     92 H37         2.3800   -1.4400    2.1230 h1        1 MOL      0.024718
     93 H38         4.2640   -2.9030    4.0900 hc        1 MOL     -0.016901
     94 H39         4.7160   -0.6160    4.9370 hc        1 MOL      0.063347
     95 H40         3.4670    0.0070    3.7350 hc        1 MOL      0.063347
     96 H41         3.0230   -2.3610    5.9730 hc        1 MOL      0.091216
     97 H42         1.7880   -1.3110    4.9380 hc        1 MOL      0.091216
     98 H43         1.9960   -3.0880    4.8010 hc        1 MOL      0.091216
     99 H44         4.9610   -0.3900    2.0310 hc        1 MOL      0.065597
    100 H45         6.0600    0.2910    3.3030 hc        1 MOL      0.065597
    101 H46         5.9350   -1.4990    3.0150 hc        1 MOL      0.065597
    102 N10         3.9650   -2.1810    0.1110 n         1 MOL      0.001446
    103 C32         4.7170   -2.6370   -1.0480 c3        1 MOL      0.068792
    104 C33         5.8800   -1.7420   -1.4230 c         1 MOL      0.501860
    105 O16         6.6760   -2.0950   -2.2920 o         1 MOL     -0.555685
    106 C34         3.7780   -2.8310   -2.2250 c3        1 MOL     -0.214273
    107 C35         2.3740   -3.2470   -1.8730 c         1 MOL      0.799036
    108 O17         2.2020   -4.4680   -1.6730 o         1 MOL     -0.733927
    109 O18         1.4590   -2.3830   -1.8850 o         1 MOL     -0.733927
    110 H47         3.2490   -1.4700    0.0090 hn        1 MOL      0.120968
    111 H48         5.2310   -3.5750   -0.8200 h1        1 MOL      0.077148
    112 H49         4.3010   -3.5050   -2.8950 hc        1 MOL      0.042068
    113 H50         3.6900   -1.8680   -2.7250 hc        1 MOL      0.042068
    114 N11         6.0780   -0.6140   -0.7280 n         1 MOL     -0.335474
    115 C36         6.8830    0.5410   -1.1610 c3        1 MOL      0.088596
    116 C37         6.4700    1.9030   -0.5590 c         1 MOL      0.385685
    117 O19         6.3860    1.9750    0.7030 o         1 MOL     -0.516171
    118 C38         8.2670    0.2500   -0.7080 c3        1 MOL     -0.245438
    119 C39         9.3530    1.2560   -1.1790 ca        1 MOL      0.124504
    120 C40         9.5840    2.3970   -0.4430 ca        1 MOL     -0.146657
    121 C41        10.0580    0.9840   -2.3930 ca        1 MOL     -0.146657
    122 C42        10.6380    3.2340   -0.8080 ca        1 MOL     -0.129075
    123 C43        11.1230    1.8970   -2.7890 ca        1 MOL     -0.129075
    124 C44        11.4240    3.0160   -1.9800 ca        1 MOL     -0.128604
    125 H51         5.3980   -0.3840   -0.0050 hn        1 MOL      0.175814
    126 H52         6.8170    0.5090   -2.2460 h1        1 MOL      0.055813
    127 H53         8.5500   -0.7600   -1.0220 hc        1 MOL      0.101991
    128 H54         8.3030    0.0640    0.3710 hc        1 MOL      0.101991
    129 H55         9.0530    2.5540    0.4900 ha        1 MOL      0.124528
    130 H56         9.8570    0.1020   -2.9880 ha        1 MOL      0.124528
    131 H57        10.7490    4.1940   -0.3350 ha        1 MOL      0.110311
    132 H58        11.5910    1.6720   -3.7440 ha        1 MOL      0.110311
    133 H59        12.2060    3.7400   -2.1970 ha        1 MOL      0.110056
    134 N12         6.3690    3.0240   -1.3280 n         1 MOL     -0.064137
    135 C45         6.3290    4.4050   -0.8490 c3        1 MOL      0.059311
    136 C46         5.0930    4.8510   -0.0520 c         1 MOL      0.290083
    137 O20         4.9490    6.1030    0.2630 o         1 MOL     -0.509331
    138 C47         6.6370    5.2340   -2.0980 c3        1 MOL     -0.039195
    139 C48         6.1410    4.4070   -3.2080 c3        1 MOL     -0.007717
    140 C49         6.5620    2.9870   -2.7370 c3        1 MOL      0.004925
    141 H60         7.1430    4.6260   -0.1610 h1        1 MOL      0.060873
    142 H61         6.0760    6.1600   -2.0490 hc        1 MOL      0.031415
    143 H62         7.7110    5.4150   -2.0500 hc        1 MOL      0.031415
    144 H63         5.0600    4.4040   -3.3520 hc        1 MOL      0.027480
    145 H64         6.6640    4.6320   -4.1370 hc        1 MOL      0.027480
    146 H65         5.8880    2.3540   -3.3100 h1        1 MOL      0.022693
    147 H66         7.6010    2.7370   -2.9470 h1        1 MOL      0.022693
    148 N13         4.1650    3.9820    0.3140 n         1 MOL     -0.051623
    149 C50         2.9530    4.2660    1.0500 c3        1 MOL     -0.382882
    150 C51         3.1850    4.5690    2.5110 c         1 MOL      0.588424
    151 O21         2.4900    5.3750    3.1390 o         1 MOL     -0.530574
    152 C52         1.9690    3.1190    0.8910 c3        1 MOL      0.074783
    153 C53         2.1960    1.7350    1.4840 c3        1 MOL     -0.148567
    154 C54         1.2860    0.7180    0.7750 c         1 MOL      0.757461
    155 O22         1.8120   -0.0550   -0.0270 o         1 MOL     -0.751284
    156 O23         0.0310    0.6640    1.0380 o         1 MOL     -0.751284
    157 H67         4.3020    3.0430   -0.0160 hn        1 MOL      0.108799
    158 H68         2.5320    5.1690    0.6090 h1        1 MOL      0.183110
    159 H69         1.5640    3.1000   -0.1240 hc        1 MOL      0.042672
    160 H70         1.0460    3.4350    1.3770 hc        1 MOL      0.042672
    161 H71         2.0220    1.7740    2.5600 hc        1 MOL      0.041325
    162 H72         3.2390    1.4860    1.3170 hc        1 MOL      0.041325
    163 N14         4.2910    3.9980    3.0300 n         1 MOL     -0.251200
    164 C55         4.6590    4.2670    4.4510 c3        1 MOL     -0.196278
    165 H73         5.6630    3.8890    4.6430 h1        1 MOL      0.092685
    166 H74         4.6340    5.3410    4.6360 h1        1 MOL      0.092685
    167 H75         3.9510    3.7670    5.1110 h1        1 MOL      0.092685
    168 H76         4.7630    3.3130    2.4730 hn        1 MOL      0.227636
    169 Ca1        -0.5200   -1.1050   -0.8240 Ca        1 MOL      1.783161
    170 O24        -2.4120   -1.2270    1.0960 oh        1 MOL     -0.895936
    171 H77        -3.3360   -1.4050    0.9460 ho        1 MOL      0.430016
    172 H78        -2.3930   -0.6620    1.8710 ho        1 MOL      0.430016
    173 O25         0.2500    0.7070   -2.6700 oh        1 MOL     -0.895936
    174 H79         0.0980    1.6510   -2.6870 ho        1 MOL      0.430016
    175 H80         0.4840    0.4820   -3.5670 ho        1 MOL      0.430016
@<TRIPOS>BOND
     1    1    2 1   
     2    1    4 1   
     3    1    5 1   
     4    1    6 1   
     5    2    3 2   
     6    2    7 1   
     7    7    8 1   
     8    7   15 1   
     9    8    9 1   
    10    8   11 1   
    11    8   16 1   
    12    9   10 2   
    13    9   19 1   
    14   11   12 1   
    15   11   17 1   
    16   11   18 1   
    17   12   13 1   
    18   12   14 1   
    19   19   20 1   
    20   19   24 1   
    21   20   21 1   
    22   20   23 1   
    23   20   25 1   
    24   21   22 2   
    25   21   29 1   
    26   23   26 1   
    27   23   27 1   
    28   23   28 1   
    29   29   30 1   
    30   29   37 1   
    31   30   31 1   
    32   30   33 1   
    33   30   38 1   
    34   31   32 2   
    35   31   41 1   
    36   33   34 1   
    37   33   39 1   
    38   33   40 1   
    39   34   35 1   
    40   34   36 1   
    41   41   42 1   
    42   41   45 1   
    43   42   43 1   
    44   42   46 1   
    45   42   47 1   
    46   43   44 2   
    47   43   48 1   
    48   48   49 1   
    49   48   56 1   
    50   49   50 1   
    51   49   52 1   
    52   49   57 1   
    53   50   51 2   
    54   50   62 1   
    55   52   53 1   
    56   52   58 1   
    57   52   59 1   
    58   53   54 1   
    59   53   55 2   
    60   54   60 1   
    61   54   61 1   
    62   62   63 1   
    63   62   66 1   
    64   63   64 1   
    65   63   67 1   
    66   63   68 1   
    67   64   65 2   
    68   64   69 1   
    69   69   70 1   
    70   69   76 1   
    71   70   71 1   
    72   70   73 1   
    73   70   77 1   
    74   71   72 2   
    75   71   83 1   
    76   73   74 1   
    77   73   75 1   
    78   73   78 1   
    79   74   80 1   
    80   74   81 1   
    81   74   82 1   
    82   75   79 1   
    83   83   84 1   
    84   83   91 1   
    85   84   85 1   
    86   84   87 1   
    87   84   92 1   
    88   85   86 2   
    89   85  102 1   
    90   87   88 1   
    91   87   89 1   
    92   87   93 1   
    93   88   90 1   
    94   88   94 1   
    95   88   95 1   
    96   89   96 1   
    97   89   97 1   
    98   89   98 1   
    99   90   99 1   
   100   90  100 1   
   101   90  101 1   
   102  102  103 1   
   103  102  110 1   
   104  103  104 1   
   105  103  106 1   
   106  103  111 1   
   107  104  105 2   
   108  104  114 1   
   109  106  107 1   
   110  106  112 1   
   111  106  113 1   
   112  107  108 1   
   113  107  109 1   
   114  114  115 1   
   115  114  125 1   
   116  115  116 1   
   117  115  118 1   
   118  115  126 1   
   119  116  117 2   
   120  116  134 1   
   121  118  119 1   
   122  118  127 1   
   123  118  128 1   
   124  119  120 ar  
   125  119  121 ar  
   126  120  122 ar  
   127  120  129 1   
   128  121  123 ar  
   129  121  130 1   
   130  122  124 ar  
   131  122  131 1   
   132  123  124 ar  
   133  123  132 1   
   134  124  133 1   
   135  134  135 1   
   136  134  140 1   
   137  135  136 1   
   138  135  138 1   
   139  135  141 1   
   140  136  137 2   
   141  136  148 1   
   142  138  139 1   
   143  138  142 1   
   144  138  143 1   
   145  139  140 1   
   146  139  144 1   
   147  139  145 1   
   148  140  146 1   
   149  140  147 1   
   150  148  149 1   
   151  148  157 1   
   152  149  150 1   
   153  149  152 1   
   154  149  158 1   
   155  150  151 2   
   156  150  163 1   
   157  152  153 1   
   158  152  159 1   
   159  152  160 1   
   160  153  154 1   
   161  153  161 1   
   162  153  162 1   
   163  154  155 1   
   164  154  156 1   
   165  163  164 1   
   166  163  168 1   
   167  164  165 1   
   168  164  166 1   
   169  164  167 1   
   170  170  171 1   
   171  170  172 1   
   172  173  174 1   
   173  173  175 1   
@<TRIPOS>SUBSTRUCTURE
     1 MOL         1 TEMP              0 ****  ****    0 ROOT
