@<TRIPOS>MOLECULE
MOL
  186   183     1     0     0
SMALL
resp


@<TRIPOS>ATOM
      1 C1         -5.8300    4.0100    3.3110 c3        1 MOL     -0.433848
      2 C2         -6.2920    3.2120    2.0180 c         1 MOL      0.734254
      3 O1         -5.3410    2.8780    1.2700 o         1 MOL     -0.699740
      4 H1         -4.7600    3.8630    3.4650 hc        1 MOL      0.113449
      5 H2         -6.0350    5.0720    3.1760 hc        1 MOL      0.113449
      6 H3         -6.3760    3.6410    4.1800 hc        1 MOL      0.113449
      7 N1         -7.5710    2.9670    1.7850 n         1 MOL     -0.773759
      8 C3         -7.9210    1.9760    0.8330 c3        1 MOL      0.442479
      9 C4         -6.9040    0.8140    0.6740 c         1 MOL      0.172681
     10 O2         -6.3130    0.4750   -0.3650 o         1 MOL     -0.375720
     11 C5         -8.4070    2.5650   -0.4790 c3        1 MOL     -0.331593
     12 C6         -7.4300    3.6230   -1.0720 c         1 MOL      0.911607
     13 O3         -6.3050    3.2800   -1.3930 o         1 MOL     -0.785094
     14 O4         -7.8100    4.7810   -1.3510 o         1 MOL     -0.785094
     15 H4         -8.2750    3.4250    2.3630 hn        1 MOL      0.382848
     16 H5         -8.8470    1.5850    1.2570 h1        1 MOL      0.006247
     17 H6         -9.3510    3.0850   -0.2880 hc        1 MOL      0.059652
     18 H7         -8.5560    1.7480   -1.1860 hc        1 MOL      0.059652
     19 N2         -6.7040    0.2330    1.8880 n         1 MOL     -0.329430
     20 C7         -5.9500   -0.9490    2.2240 c3        1 MOL     -0.074574
     21 C8         -6.2770   -2.3410    1.5890 c         1 MOL      0.379861
     22 O5         -6.3660   -3.3310    2.3410 o         1 MOL     -0.528931
     23 C9         -4.4310   -0.6480    2.3460 c3        1 MOL     -0.053284
     24 C10        -3.5710   -1.8950    2.5190 c3        1 MOL     -0.013530
     25 C11        -4.3430    0.1050    3.6610 c3        1 MOL     -0.256856
     26 C12        -2.0480   -1.6560    2.6560 c3        1 MOL     -0.163545
     27 H8         -7.2030    0.5790    2.6860 hn        1 MOL      0.272376
     28 H9         -6.2510   -1.1910    3.2430 h1        1 MOL      0.083004
     29 H10        -4.1680   -0.0080    1.5010 hc        1 MOL      0.268825
     30 H11        -3.7110   -2.6240    1.7250 hc        1 MOL      0.014204
     31 H12        -3.8440   -2.4200    3.4410 hc        1 MOL      0.014204
     32 H13        -4.4510   -0.5320    4.5440 hc        1 MOL      0.052412
     33 H14        -3.3170    0.4800    3.6560 hc        1 MOL      0.052412
     34 H15        -5.0200    0.9500    3.7420 hc        1 MOL      0.052412
     35 H16        -1.7820   -1.8370    3.6950 hc        1 MOL      0.069565
     36 H17        -1.4530   -2.2790    1.9890 hc        1 MOL      0.069565
     37 H18        -1.9020   -0.6130    2.3670 hc        1 MOL      0.069565
     38 N3         -6.5640   -2.4390    0.2790 n         1 MOL     -0.043445
     39 C13        -7.1740   -3.5890   -0.3890 c3        1 MOL     -0.122739
     40 C14        -6.3270   -4.9050   -0.2280 c         1 MOL      0.507100
     41 O6         -6.8430   -5.9260    0.2740 o         1 MOL     -0.576413
     42 C15        -7.7580   -3.3010   -1.8100 c3        1 MOL     -0.112824
     43 C16        -8.5260   -1.9860   -1.8630 c         1 MOL      0.743526
     44 O7         -8.3510   -1.3060   -2.9360 o         1 MOL     -0.717099
     45 O8         -9.4260   -1.7700   -1.0110 o         1 MOL     -0.717099
     46 H19        -6.4020   -1.6310   -0.2990 hn        1 MOL      0.141802
     47 H20        -8.0350   -3.7920    0.2540 h1        1 MOL      0.085374
     48 H21        -8.4590   -4.1060   -2.0070 hc        1 MOL      0.009512
     49 H22        -6.9940   -3.3070   -2.5770 hc        1 MOL      0.009512
     50 N4         -5.0050   -4.9330   -0.4120 n         1 MOL     -0.450432
     51 C17        -4.2680   -3.8520   -0.9880 c3        1 MOL      0.191869
     52 C18        -2.9780   -4.2260   -1.7320 c         1 MOL      0.456121
     53 O9         -2.3450   -5.2280   -1.5310 o         1 MOL     -0.540154
     54 H23        -4.5710   -5.8460   -0.4880 hn        1 MOL      0.256961
     55 H24        -4.0710   -3.2420   -0.0970 h1        1 MOL      0.047727
     56 H25        -4.9050   -3.3720   -1.7200 h1        1 MOL      0.047727
     57 N5         -2.4980   -3.3090   -2.5620 n         1 MOL     -0.460328
     58 C19        -2.7020   -1.8210   -2.6330 c3        1 MOL     -0.003224
     59 C20        -2.3660   -1.0920   -1.3290 c         1 MOL      0.351458
     60 O10        -3.1540   -0.3950   -0.7190 o         1 MOL     -0.666026
     61 C21        -4.0810   -1.4360   -3.1440 c3        1 MOL     -0.185129
     62 C22        -4.1730   -0.0840   -3.7030 c         1 MOL      0.834960
     63 O11        -3.7240    0.0860   -4.8890 o         1 MOL     -0.752353
     64 O12        -4.6590    0.8650   -3.0420 o         1 MOL     -0.752353
     65 H26        -1.6650   -3.6540   -3.0240 hn        1 MOL      0.280675
     66 H27        -1.9160   -1.5040   -3.3210 h1        1 MOL      0.100658
     67 H28        -4.8260   -1.4940   -2.3490 hc        1 MOL      0.058909
     68 H29        -4.3710   -2.1090   -3.9560 hc        1 MOL      0.058909
     69 N6         -1.1330   -1.2170   -0.8030 n         1 MOL     -0.162337
     70 C23         0.0800   -1.9060   -1.3310 c3        1 MOL     -0.082305
     71 C24         0.5620   -3.2230   -0.6320 c         1 MOL      0.487014
     72 O13        -0.1980   -3.8800    0.0590 o         1 MOL     -0.415855
     73 H30        -0.9900   -0.5200   -0.0800 hn        1 MOL      0.277647
     74 H31         0.9140   -1.2180   -1.1850 h1        1 MOL      0.045090
     75 H32         0.0600   -2.0150   -2.4130 h1        1 MOL      0.045090
     76 N7          1.8720   -3.4300   -0.7280 n         1 MOL     -0.473227
     77 C25         2.5270   -4.6400   -0.2070 c3        1 MOL     -0.006178
     78 C26         2.7160   -4.5910    1.2820 c         1 MOL      0.288611
     79 O14         2.7860   -5.6710    1.9590 o         1 MOL     -0.490864
     80 C27         3.9450   -4.8710   -0.8280 c3        1 MOL      0.126663
     81 C28         4.0170   -4.7030   -2.3330 c3        1 MOL     -0.154254
     82 C29         5.4480   -4.6090   -2.8960 c         1 MOL      0.598494
     83 N8          5.9490   -3.4390   -3.2780 n         1 MOL     -0.753953
     84 O15         6.1500   -5.6320   -2.9910 o         1 MOL     -0.571230
     85 H33         2.3980   -2.9750   -1.4630 hn        1 MOL      0.293818
     86 H34         1.9450   -5.5280   -0.4470 h1        1 MOL      0.120664
     87 H35         4.2390   -5.8920   -0.5940 hc        1 MOL      0.007748
     88 H36         4.6230   -4.1950   -0.3220 hc        1 MOL      0.007748
     89 H37         3.5960   -3.7530   -2.6620 hc        1 MOL      0.050847
     90 H38         3.5030   -5.5000   -2.8630 hc        1 MOL      0.050847
     91 H39         5.3170   -2.6810   -3.4610 hn        1 MOL      0.363276
     92 H40         6.8730   -3.4230   -3.6880 hn        1 MOL      0.363276
     93 N9          2.8960   -3.3180    1.7740 n         1 MOL      0.005026
     94 C30         3.2650   -3.0900    3.1970 c3        1 MOL     -0.398348
     95 C31         4.6220   -2.3140    3.2810 c         1 MOL      0.566952
     96 O16         5.1060   -2.1250    4.4120 o         1 MOL     -0.530144
     97 C32         2.1600   -2.3410    3.9640 c3        1 MOL      0.368831
     98 C33         0.8030   -3.0930    4.0210 c3        1 MOL     -0.304066
     99 C34         1.8360   -1.0230    3.2670 c3        1 MOL     -0.304066
    100 H41         2.8540   -2.6200    1.0440 hn        1 MOL      0.186182
    101 H42         3.5790   -3.9950    3.7180 h1        1 MOL      0.169173
    102 H43         2.4960   -2.1290    4.9780 hc        1 MOL     -0.013851
    103 H44         1.0460   -4.0910    4.3940 hc        1 MOL      0.062514
    104 H45         0.0970   -2.6020    4.6850 hc        1 MOL      0.062514
    105 H46         0.4060   -3.2940    3.0330 hc        1 MOL      0.062514
    106 H47         1.2590   -0.4420    3.9830 hc        1 MOL      0.062514
    107 H48         2.7250   -0.4370    3.0280 hc        1 MOL      0.062514
    108 H49         1.3060   -1.1880    2.3310 hc        1 MOL      0.062514
    109 N10         5.3060   -2.0520    2.1330 n         1 MOL     -0.396184
    110 C35         6.5980   -1.3400    2.0810 c3        1 MOL      0.030574
    111 C36         6.5420    0.1760    1.7870 c         1 MOL      0.618218
    112 O17         7.2900    0.8730    2.4150 o         1 MOL     -0.580503
    113 C37         7.6280   -2.0650    1.2980 c3        1 MOL     -0.229849
    114 C38         7.2910   -2.3910   -0.1330 c         1 MOL      0.372572
    115 N11         7.9620   -3.4010   -0.6790 n         1 MOL     -0.624203
    116 O18         6.2920   -1.9250   -0.7590 o         1 MOL     -0.445982
    117 H50         5.0110   -2.3610    1.2240 hn        1 MOL      0.237554
    118 H51         6.9300   -1.3190    3.1130 h1        1 MOL      0.061999
    119 H52         7.9600   -2.9740    1.7970 hc        1 MOL      0.118019
    120 H53         8.5930   -1.5470    1.2950 hc        1 MOL      0.118019
    121 H54         8.7460   -3.7390   -0.1520 hn        1 MOL      0.339219
    122 H55         7.6590   -3.5770   -1.6320 hn        1 MOL      0.339219
    123 N12         5.7090    0.6560    0.9280 n         1 MOL     -0.376850
    124 C39         5.9850    1.8890    0.2780 c3        1 MOL     -0.087565
    125 C40         4.6000    2.4410   -0.1350 c         1 MOL      0.529992
    126 O19         3.7260    1.7190   -0.6400 o         1 MOL     -0.446366
    127 C41         6.7690    1.6100   -1.0320 c3        1 MOL     -0.035863
    128 C42         8.1650    1.1630   -0.8260 ca        1 MOL     -0.006317
    129 C43         9.0030    1.8410    0.0790 ca        1 MOL     -0.113479
    130 C44         8.7740    0.1470   -1.6090 ca        1 MOL     -0.113479
    131 C45        10.3900    1.5760    0.2050 ca        1 MOL     -0.263081
    132 C46        10.1340   -0.1750   -1.5230 ca        1 MOL     -0.263081
    133 C47        10.9680    0.6060   -0.6260 ca        1 MOL      0.328431
    134 O20        12.2640    0.2750   -0.5130 oh        1 MOL     -0.519330
    135 H56         5.0590    0.0290    0.4900 hn        1 MOL      0.176370
    136 H57         6.3870    2.5700    1.0250 h1        1 MOL      0.113968
    137 H58         6.6700    2.5050   -1.6480 hc        1 MOL      0.075795
    138 H59         6.1600    0.9100   -1.6070 hc        1 MOL      0.075795
    139 H60         8.6040    2.6020    0.7290 ha        1 MOL      0.129567
    140 H61         8.2390   -0.3890   -2.3760 ha        1 MOL      0.129567
    141 H62        11.0730    2.1620    0.7970 ha        1 MOL      0.132024
    142 H63        10.5360   -0.9850   -2.1080 ha        1 MOL      0.132024
    143 H64        12.7000    0.6660    0.2490 ho        1 MOL      0.380847
    144 N13         4.5620    3.7790   -0.1310 n         1 MOL     -0.523025
    145 C48         3.4830    4.5640   -0.7630 c3        1 MOL      0.056058
    146 C49         2.0600    4.5750   -0.0530 c         1 MOL      0.302723
    147 O21         1.1430    5.2650   -0.5050 o         1 MOL     -0.460459
    148 C50         3.3500    4.4430   -2.2830 c3        1 MOL      0.243713
    149 C51         4.5430    5.0390   -3.1130 c3        1 MOL     -0.334562
    150 C52         4.2660    5.1070   -4.6180 c         1 MOL      0.753088
    151 O22         4.4210    6.2320   -5.1780 o         1 MOL     -0.744495
    152 O23         4.0010    4.0780   -5.2920 o         1 MOL     -0.744495
    153 H65         5.3180    4.2760    0.3150 hn        1 MOL      0.295996
    154 H66         3.7160    5.6310   -0.7190 h1        1 MOL      0.048119
    155 H67         2.4870    4.9940   -2.6520 hc        1 MOL     -0.006957
    156 H68         3.1370    3.3970   -2.5140 hc        1 MOL     -0.006957
    157 H69         5.4420    4.4240   -2.9950 hc        1 MOL      0.027636
    158 H70         4.7390    6.0320   -2.7030 hc        1 MOL      0.027636
    159 N14         1.9120    3.9420    1.0740 n         1 MOL     -0.256546
    160 C53         0.6510    3.8020    1.8030 c3        1 MOL     -0.200637
    161 C54         0.6340    4.5240    3.1410 c         1 MOL      0.414498
    162 O24        -0.3350    4.6350    3.7940 o         1 MOL     -0.483402
    163 C55         0.4310    2.3560    2.0890 c3        1 MOL      0.151735
    164 C56         0.1180    1.4920    0.8280 c3        1 MOL      0.153361
    165 C57        -1.2730    1.8610    0.4030 c         1 MOL      0.448640
    166 O25        -2.3150    1.5690    1.0680 o         1 MOL     -0.626369
    167 O26        -1.5130    2.4110   -0.6940 o         1 MOL     -0.626369
    168 H71         2.6920    3.4060    1.4340 hn        1 MOL      0.240452
    169 H72        -0.1890    4.0770    1.1600 h1        1 MOL      0.244321
    170 H73        -0.3980    2.0860    2.7450 hc        1 MOL     -0.035613
    171 H74         1.3710    2.0590    2.5680 hc        1 MOL     -0.035613
    172 H75         0.0920    0.4590    1.1640 hc        1 MOL     -0.091450
    173 H76         0.8920    1.6880    0.0850 hc        1 MOL     -0.091450
    174 N15         1.8140    4.9470    3.6410 n         1 MOL     -0.155965
    175 C58         1.9500    5.7010    4.9170 c3        1 MOL     -0.335270
    176 H77         3.0000    5.7370    5.2070 h1        1 MOL      0.125132
    177 H78         1.5750    6.7160    4.7820 h1        1 MOL      0.125132
    178 H79         1.3740    5.2020    5.6970 h1        1 MOL      0.125132
    179 H80         2.6050    4.6980    3.0600 hn        1 MOL      0.159110
    180 Ca1        -4.0640    2.2020   -0.8730 Ca        1 MOL      1.817359
    181 O27        -3.0720    3.6440   -2.9130 oh        1 MOL     -0.859244
    182 H81        -3.3600    3.5780   -3.8330 ho        1 MOL      0.414219
    183 H82        -2.5190    4.4200   -2.8880 ho        1 MOL      0.414219
    184 O28        -3.9380    5.0850   -0.5850 oh        1 MOL     -0.859244
    185 H83        -3.5420    5.9490   -0.5640 ho        1 MOL      0.414219
    186 H84        -4.8500    5.2350   -0.3270 ho        1 MOL      0.414219
@<TRIPOS>BOND
     1    1    2 1   
     2    1    4 1   
     3    1    5 1   
     4    1    6 1   
     5    2    3 2   
     6    2    7 1   
     7    7    8 1   
     8    7   15 1   
     9    8    9 1   
    10    8   11 1   
    11    8   16 1   
    12    9   10 2   
    13    9   19 1   
    14   11   12 1   
    15   11   17 1   
    16   11   18 1   
    17   12   13 1   
    18   12   14 1   
    19   19   20 1   
    20   19   27 1   
    21   20   21 1   
    22   20   23 1   
    23   20   28 1   
    24   21   22 2   
    25   21   38 1   
    26   23   24 1   
    27   23   25 1   
    28   23   29 1   
    29   24   26 1   
    30   24   30 1   
    31   24   31 1   
    32   25   32 1   
    33   25   33 1   
    34   25   34 1   
    35   26   35 1   
    36   26   36 1   
    37   26   37 1   
    38   38   39 1   
    39   38   46 1   
    40   39   40 1   
    41   39   42 1   
    42   39   47 1   
    43   40   41 2   
    44   40   50 1   
    45   42   43 1   
    46   42   48 1   
    47   42   49 1   
    48   43   44 1   
    49   43   45 1   
    50   50   51 1   
    51   50   54 1   
    52   51   52 1   
    53   51   55 1   
    54   51   56 1   
    55   52   53 2   
    56   52   57 1   
    57   57   58 1   
    58   57   65 1   
    59   58   59 1   
    60   58   61 1   
    61   58   66 1   
    62   59   60 2   
    63   59   69 1   
    64   61   62 1   
    65   61   67 1   
    66   61   68 1   
    67   62   63 1   
    68   62   64 1   
    69   69   70 1   
    70   69   73 1   
    71   70   71 1   
    72   70   74 1   
    73   70   75 1   
    74   71   72 2   
    75   71   76 1   
    76   76   77 1   
    77   76   85 1   
    78   77   78 1   
    79   77   80 1   
    80   77   86 1   
    81   78   79 2   
    82   78   93 1   
    83   80   81 1   
    84   80   87 1   
    85   80   88 1   
    86   81   82 1   
    87   81   89 1   
    88   81   90 1   
    89   82   83 1   
    90   82   84 2   
    91   83   91 1   
    92   83   92 1   
    93   93   94 1   
    94   93  100 1   
    95   94   95 1   
    96   94   97 1   
    97   94  101 1   
    98   95   96 2   
    99   95  109 1   
   100   97   98 1   
   101   97   99 1   
   102   97  102 1   
   103   98  103 1   
   104   98  104 1   
   105   98  105 1   
   106   99  106 1   
   107   99  107 1   
   108   99  108 1   
   109  109  110 1   
   110  109  117 1   
   111  110  111 1   
   112  110  113 1   
   113  110  118 1   
   114  111  112 2   
   115  111  123 1   
   116  113  114 1   
   117  113  119 1   
   118  113  120 1   
   119  114  115 1   
   120  114  116 2   
   121  115  121 1   
   122  115  122 1   
   123  123  124 1   
   124  123  135 1   
   125  124  125 1   
   126  124  127 1   
   127  124  136 1   
   128  125  126 2   
   129  125  144 1   
   130  127  128 1   
   131  127  137 1   
   132  127  138 1   
   133  128  129 ar  
   134  128  130 ar  
   135  129  131 ar  
   136  129  139 1   
   137  130  132 ar  
   138  130  140 1   
   139  131  133 ar  
   140  131  141 1   
   141  132  133 ar  
   142  132  142 1   
   143  133  134 1   
   144  134  143 1   
   145  144  145 1   
   146  144  153 1   
   147  145  146 1   
   148  145  148 1   
   149  145  154 1   
   150  146  147 2   
   151  146  159 1   
   152  148  149 1   
   153  148  155 1   
   154  148  156 1   
   155  149  150 1   
   156  149  157 1   
   157  149  158 1   
   158  150  151 1   
   159  150  152 1   
   160  159  160 1   
   161  159  168 1   
   162  160  161 1   
   163  160  163 1   
   164  160  169 1   
   165  161  162 2   
   166  161  174 1   
   167  163  164 1   
   168  163  170 1   
   169  163  171 1   
   170  164  165 1   
   171  164  172 1   
   172  164  173 1   
   173  165  166 1   
   174  165  167 1   
   175  174  175 1   
   176  174  179 1   
   177  175  176 1   
   178  175  177 1   
   179  175  178 1   
   180  181  182 1   
   181  181  183 1   
   182  184  185 1   
   183  184  186 1   
@<TRIPOS>SUBSTRUCTURE
     1 MOL         1 TEMP              0 ****  ****    0 ROOT
