@<TRIPOS>MOLECULE
MOL
  192   187     1     0     0
SMALL
resp


@<TRIPOS>ATOM
      1 C1         -7.3500   -2.7780    3.9380 c3        1 MOL     -0.279252
      2 C2         -6.5040   -2.1810    2.8210 c         1 MOL      0.732724
      3 O1         -6.0540   -2.9590    1.9700 o         1 MOL     -0.588114
      4 H1         -8.1030   -3.4400    3.5090 hc        1 MOL      0.063550
      5 H2         -6.7110   -3.3460    4.6150 hc        1 MOL      0.063550
      6 H3         -7.8430   -1.9780    4.4900 hc        1 MOL      0.063550
      7 N1         -6.2700   -0.8390    2.8420 n         1 MOL     -0.506167
      8 C3         -5.5810   -0.0500    1.8010 c3        1 MOL      0.218271
      9 C4         -4.0780   -0.4660    1.6810 c         1 MOL      0.051923
     10 O2         -3.4330    0.0860    0.7660 o         1 MOL     -0.263690
     11 C5         -5.5570    1.4290    2.2130 c3        1 MOL     -0.074590
     12 C6         -6.9870    1.8590    2.4690 c         1 MOL      0.670728
     13 O3         -7.6240    1.4720    3.4710 o         1 MOL     -0.696762
     14 O4         -7.4060    2.6480    1.6250 o         1 MOL     -0.696762
     15 H4         -6.6530   -0.3690    3.6500 hn        1 MOL      0.244713
     16 H5         -6.1250   -0.0720    0.8540 h1        1 MOL      0.081268
     17 H6         -5.2010    1.9510    1.3260 hc        1 MOL     -0.014931
     18 H7         -4.9470    1.5490    3.1180 hc        1 MOL     -0.014931
     19 N2         -3.4980   -1.3600    2.5260 n         1 MOL     -0.254407
     20 C7         -1.9800   -1.4860    2.6890 c3        1 MOL      0.090115
     21 C8         -1.3880   -2.6550    1.9980 c         1 MOL      0.295499
     22 O5         -1.9610   -3.7660    2.0210 o         1 MOL     -0.478916
     23 C9         -1.5970   -1.3990    4.1790 c3        1 MOL      0.016163
     24 C10        -2.1870   -0.0880    4.8110 c3        1 MOL      0.252686
     25 C11        -1.6130   -0.1680    6.2830 c3        1 MOL     -0.208112
     26 C12        -2.5220    0.5900    7.2790 c3        1 MOL      0.244911
     27 N3         -1.9820    0.5160    8.6180 n4        1 MOL     -0.479150
     28 H8         -4.1200   -1.9260    3.0920 hn        1 MOL      0.237987
     29 H9         -1.5850   -0.5520    2.3020 h1        1 MOL      0.143329
     30 H10        -0.5130   -1.4600    4.2900 hc        1 MOL     -0.000939
     31 H11        -1.9970   -2.2330    4.7620 hc        1 MOL     -0.000939
     32 H12        -3.2800   -0.1440    4.8090 hc        1 MOL     -0.047006
     33 H13        -1.8370    0.8220    4.3360 hc        1 MOL     -0.047006
     34 H14        -0.6220    0.2980    6.3020 hc        1 MOL      0.054922
     35 H15        -1.6090   -1.1880    6.6400 hc        1 MOL      0.054922
     36 H16        -3.4310   -0.0190    7.2610 hx        1 MOL      0.031715
     37 H17        -2.8760    1.5650    6.9440 hx        1 MOL      0.031715
     38 H18        -2.2850   -0.2950    9.1430 hn        1 MOL      0.346226
     39 H19        -0.9710    0.4910    8.5820 hn        1 MOL      0.346226
     40 H20        -2.2280    1.3580    9.1160 hn        1 MOL      0.346226
     41 N4         -0.2610   -2.5440    1.2650 n         1 MOL     -0.246142
     42 C13         0.6590   -1.4180    1.1210 c3        1 MOL      0.113973
     43 C14         1.2030   -0.6990    2.3330 c         1 MOL      0.494350
     44 O6          0.5830    0.2550    2.7890 o         1 MOL     -0.569677
     45 C15         0.1350   -0.5470   -0.0900 c3        1 MOL     -0.322179
     46 C16         0.1170   -1.2060   -1.5000 c         1 MOL      0.750272
     47 O7          0.5300   -2.3830   -1.6320 o         1 MOL     -0.736164
     48 O8         -0.3390   -0.5080   -2.4490 o         1 MOL     -0.736164
     49 H21        -0.0810   -3.2970    0.6130 hn        1 MOL      0.167050
     50 H22         1.4810   -1.8600    0.5670 h1        1 MOL     -0.095697
     51 H23         0.8850    0.2390   -0.1870 hc        1 MOL      0.175699
     52 H24        -0.8190   -0.0800    0.1750 hc        1 MOL      0.175699
     53 N5          2.4270   -0.9810    2.7860 n         1 MOL     -0.402539
     54 C17         3.3620   -1.8770    2.2740 c3        1 MOL      0.015485
     55 C18         4.3200   -2.2580    3.3960 c         1 MOL      0.475271
     56 O9          4.2380   -1.5810    4.4770 o         1 MOL     -0.550537
     57 H25         2.7370   -0.3840    3.5360 hn        1 MOL      0.303167
     58 H26         3.9250   -1.3940    1.4660 h1        1 MOL      0.096810
     59 H27         2.8320   -2.7890    1.9720 h1        1 MOL      0.096810
     60 N6          5.2150   -3.1580    3.1840 n         1 MOL     -0.407782
     61 C19         5.5160   -3.9120    1.9780 c3        1 MOL      0.176177
     62 C20         6.1510   -3.0580    0.9080 c         1 MOL      0.516329
     63 O10         6.7940   -2.0290    1.1990 o         1 MOL     -0.407453
     64 C21         6.5200   -5.0290    2.3540 c3        1 MOL     -0.087537
     65 C22         7.8560   -4.5300    2.8850 c         1 MOL      0.644844
     66 O11         8.0330   -4.0310    4.0080 o         1 MOL     -0.620680
     67 O12         8.8910   -4.6280    2.1570 o         1 MOL     -0.620680
     68 H28         5.8000   -3.2830    3.9970 hn        1 MOL      0.272754
     69 H29         4.7150   -4.4570    1.4910 h1        1 MOL     -0.053401
     70 H30         6.6650   -5.7320    1.5370 hc        1 MOL      0.003380
     71 H31         6.0810   -5.6420    3.1360 hc        1 MOL      0.003380
     72 N7          6.0070   -3.6380   -0.3310 n         1 MOL     -0.639924
     73 C23         6.7700   -3.1860   -1.4860 c3        1 MOL      0.048268
     74 C24         6.4530   -1.7870   -1.9970 c         1 MOL      0.427779
     75 O13         7.0380   -1.3880   -2.9930 o         1 MOL     -0.548277
     76 H32         5.6460   -4.5850   -0.3670 hn        1 MOL      0.340242
     77 H33         6.6260   -3.9620   -2.2420 h1        1 MOL      0.092085
     78 H34         7.8410   -3.2500   -1.2670 h1        1 MOL      0.092085
     79 N8          5.5690   -1.0090   -1.3790 n         1 MOL     -0.116609
     80 C25         5.2470    0.3450   -1.6110 c3        1 MOL      0.004121
     81 C26         5.3940    1.3710   -0.4110 c         1 MOL      0.476291
     82 O14         5.1790    1.0790    0.7550 o         1 MOL     -0.480307
     83 C27         3.8930    0.6050   -2.2970 c3        1 MOL      0.190893
     84 C28         3.8270    0.2220   -3.7840 c3        1 MOL     -0.347636
     85 O15         3.4770    1.9810   -2.3870 oh        1 MOL     -0.541847
     86 H35         5.0580   -1.4420   -0.6230 hn        1 MOL      0.021330
     87 H36         5.9030    0.6550   -2.4170 h1        1 MOL      0.083404
     88 H37         3.2220    0.0040   -1.6700 h1        1 MOL      0.081409
     89 H38         2.7740    1.9470   -3.0480 ho        1 MOL      0.398519
     90 H39         2.8020    0.1130   -4.1510 hc        1 MOL      0.088686
     91 H40         4.2840    1.0260   -4.3660 hc        1 MOL      0.088686
     92 H41         4.1790   -0.7990   -3.9210 hc        1 MOL      0.088686
     93 N9          5.7960    2.5630   -0.8330 n         1 MOL     -0.365169
     94 C29         5.8150    3.8370    0.0030 c3        1 MOL     -0.176278
     95 C30         4.4800    4.5150    0.4210 c         1 MOL      0.536467
     96 O16         4.5020    5.3700    1.2360 o         1 MOL     -0.568970
     97 C31         6.9090    4.8510   -0.4980 c3        1 MOL      0.207942
     98 C32         6.4300    5.8060   -1.5650 c3        1 MOL      0.248061
     99 C33         8.2190    4.1070   -0.9380 c3        1 MOL     -0.299320
    100 C34         7.4730    6.8530   -1.9500 c3        1 MOL     -0.333997
    101 H42         5.8950    2.6690   -1.8280 hn        1 MOL      0.277598
    102 H43         6.0730    3.4860    1.0010 h1        1 MOL      0.147670
    103 H44         7.2290    5.5270    0.3000 hc        1 MOL     -0.006856
    104 H45         5.5010    6.3140   -1.2830 hc        1 MOL     -0.059261
    105 H46         6.1740    5.2060   -2.4350 hc        1 MOL     -0.059261
    106 H47         8.1820    3.7490   -1.9700 hc        1 MOL      0.070069
    107 H48         9.0590    4.7910   -0.7990 hc        1 MOL      0.070069
    108 H49         8.3140    3.2160   -0.3190 hc        1 MOL      0.070069
    109 H50         7.5890    7.4550   -1.0490 hc        1 MOL      0.076306
    110 H51         8.4200    6.4290   -2.2840 hc        1 MOL      0.076306
    111 H52         7.1450    7.5760   -2.6900 hc        1 MOL      0.076306
    112 N10         3.3660    4.1510   -0.1710 n         1 MOL     -0.250737
    113 C35         1.9810    4.7070    0.0160 c3        1 MOL      0.005644
    114 C36         0.9230    3.6290    0.0240 c         1 MOL      0.407134
    115 O17         1.0670    2.6740   -0.7790 o         1 MOL     -0.454157
    116 C37         1.5690    5.7390   -1.0540 c3        1 MOL      0.457364
    117 C38         1.7640    5.4290   -2.5130 c3        1 MOL     -0.143540
    118 O18         2.0390    7.0080   -0.7620 oh        1 MOL     -0.622433
    119 H53         3.4210    3.6210   -1.0210 hn        1 MOL      0.139211
    120 H54         1.8880    5.1820    0.9940 h1        1 MOL      0.055448
    121 H55         0.4950    5.8720   -0.9340 h1        1 MOL     -0.055004
    122 H56         1.5980    7.2170    0.0670 ho        1 MOL      0.360542
    123 H57         1.0970    4.6270   -2.8490 hc        1 MOL      0.037663
    124 H58         1.4800    6.2850   -3.1200 hc        1 MOL      0.037663
    125 H59         2.8110    5.2050   -2.7090 hc        1 MOL      0.037663
    126 N11        -0.1440    3.7390    0.8130 n         1 MOL     -0.388052
    127 C39        -1.3480    2.9370    0.6010 c3        1 MOL      0.037500
    128 C40        -1.9160    2.9050   -0.8230 c         1 MOL      0.395719
    129 O19        -1.6730    3.7950   -1.6110 o         1 MOL     -0.535687
    130 C41        -2.5220    3.6130    1.3290 c3        1 MOL      0.375761
    131 C42        -2.8960    5.0320    0.8540 c3        1 MOL     -0.339529
    132 O20        -2.2410    3.5520    2.7500 oh        1 MOL     -0.653098
    133 H60        -0.2550    4.5290    1.4360 hn        1 MOL      0.251863
    134 H61        -1.2250    1.9570    1.0460 h1        1 MOL      0.024627
    135 H62        -3.4780    3.0790    1.3070 h1        1 MOL      0.149173
    136 H63        -1.3080    3.3290    2.7800 ho        1 MOL      0.373388
    137 H64        -1.9820    5.6040    0.7100 hc        1 MOL      0.074414
    138 H65        -3.4640    5.0380   -0.0880 hc        1 MOL      0.074414
    139 H66        -3.6040    5.4380    1.5640 hc        1 MOL      0.074414
    140 N12        -2.6590    1.8190   -1.1320 n         1 MOL      0.161271
    141 C43        -3.2350    1.5770   -2.5080 c3        1 MOL     -0.027061
    142 C44        -3.5710    0.1130   -2.9010 c         1 MOL      0.611489
    143 O21        -3.8520   -0.1230   -4.0700 o         1 MOL     -0.647367
    144 C45        -4.4080    2.4550   -2.7080 c3        1 MOL     -0.328432
    145 C46        -5.6030    2.4490   -1.7220 c3        1 MOL      0.128971
    146 C47        -6.7950    3.3440   -2.1740 c3        1 MOL     -0.053581
    147 C48        -6.5950    4.8570   -2.0550 c3        1 MOL      0.155956
    148 N13        -7.8110    5.4990   -2.5160 n4        1 MOL     -0.453931
    149 H67        -2.6100    1.0550   -0.4810 hn        1 MOL     -0.368625
    150 H68        -2.4430    1.7950   -3.2160 h1        1 MOL      0.112335
    151 H69        -4.7690    2.3800   -3.7440 hc        1 MOL      0.071661
    152 H70        -3.9680    3.4460   -2.6500 hc        1 MOL      0.071661
    153 H71        -5.2130    2.7560   -0.7500 hc        1 MOL     -0.000139
    154 H72        -5.9270    1.4180   -1.5990 hc        1 MOL     -0.000139
    155 H73        -7.6190    3.1210   -1.4930 hc        1 MOL      0.031302
    156 H74        -7.0460    2.9950   -3.1700 hc        1 MOL      0.031302
    157 H75        -5.7640    5.0990   -2.7130 hx        1 MOL      0.051355
    158 H76        -6.2850    5.0990   -1.0310 hx        1 MOL      0.051355
    159 H77        -8.5550    5.4980   -1.8250 hn        1 MOL      0.346817
    160 H78        -7.6760    6.4940   -2.6270 hn        1 MOL      0.346817
    161 H79        -8.1090    5.0930   -3.3880 hn        1 MOL      0.346817
    162 N14        -3.4880   -0.8860   -1.9930 n         1 MOL     -0.154411
    163 C49        -3.9960   -2.2390   -2.2890 c3        1 MOL     -0.270900
    164 C50        -5.5310   -2.3020   -2.2200 c         1 MOL      0.403177
    165 O22        -6.1150   -1.9240   -1.2240 o         1 MOL     -0.466188
    166 C51        -3.2460   -3.1800   -1.3260 c3        1 MOL      0.816589
    167 C52        -3.4120   -4.7020   -1.6430 c3        1 MOL     -0.739743
    168 C53        -3.1280   -5.0950   -3.0850 c         1 MOL      0.703749
    169 O23        -4.0600   -5.3740   -3.8400 o         1 MOL     -0.703897
    170 O24        -1.9110   -5.1190   -3.4040 o         1 MOL     -0.703897
    171 H80        -3.5280   -0.5940   -1.0210 hn        1 MOL      0.236655
    172 H81        -3.6490   -2.4280   -3.3070 h1        1 MOL      0.134045
    173 H82        -3.4030   -2.9930   -0.2680 hc        1 MOL     -0.210294
    174 H83        -2.1870   -2.9560   -1.4540 hc        1 MOL     -0.210294
    175 H84        -4.4540   -4.9510   -1.4330 hc        1 MOL      0.185891
    176 H85        -2.7770   -5.2870   -0.9770 hc        1 MOL      0.185891
    177 N15        -6.1020   -2.6800   -3.3740 n         1 MOL     -0.107860
    178 C54        -7.5350   -2.8460   -3.4030 c3        1 MOL     -0.390781
    179 H86        -7.7910   -3.6690   -4.0710 h1        1 MOL      0.134796
    180 H87        -7.8950   -3.0680   -2.3990 h1        1 MOL      0.134796
    181 H88        -8.0010   -1.9290   -3.7620 h1        1 MOL      0.134796
    182 H89        -5.5090   -2.7060   -4.1940 hn        1 MOL      0.270575
    183 Ca1         0.5630   -4.5560   -3.0550 Ca        1 MOL      1.666079
    184 O25        -0.8220   -2.3470   -4.1770 oh        1 MOL     -0.927544
    185 H90        -1.3720   -1.9230   -4.8360 ho        1 MOL      0.445827
    186 H91        -0.6930   -1.6850   -3.5090 ho        1 MOL      0.445827
    187 O26        -0.4040   -5.2950   -5.5390 oh        1 MOL     -0.927544
    188 H92        -1.3100   -5.3740   -5.2470 ho        1 MOL      0.445827
    189 H93        -0.4530   -4.7530   -6.3300 ho        1 MOL      0.445827
    190 O27         2.2210   -3.1250   -4.5440 oh        1 MOL     -0.927544
    191 H94         2.0350   -2.2060   -4.7250 ho        1 MOL      0.445827
    192 H95         2.9080   -3.3580   -5.1620 ho        1 MOL      0.445827
@<TRIPOS>BOND
     1    1    2 1   
     2    1    4 1   
     3    1    5 1   
     4    1    6 1   
     5    2    3 2   
     6    2    7 1   
     7    7    8 1   
     8    7   15 1   
     9    8    9 1   
    10    8   11 1   
    11    8   16 1   
    12    9   10 2   
    13    9   19 1   
    14   11   12 1   
    15   11   17 1   
    16   11   18 1   
    17   12   13 1   
    18   12   14 1   
    19   19   20 1   
    20   19   28 1   
    21   20   21 1   
    22   20   23 1   
    23   20   29 1   
    24   21   22 2   
    25   21   41 1   
    26   23   24 1   
    27   23   30 1   
    28   23   31 1   
    29   24   25 1   
    30   24   32 1   
    31   24   33 1   
    32   25   26 1   
    33   25   34 1   
    34   25   35 1   
    35   26   27 1   
    36   26   36 1   
    37   26   37 1   
    38   27   38 1   
    39   27   39 1   
    40   27   40 1   
    41   41   42 1   
    42   41   49 1   
    43   42   43 1   
    44   42   45 1   
    45   42   50 1   
    46   43   44 2   
    47   43   53 1   
    48   45   46 1   
    49   45   51 1   
    50   45   52 1   
    51   46   47 1   
    52   46   48 1   
    53   53   54 1   
    54   53   57 1   
    55   54   55 1   
    56   54   58 1   
    57   54   59 1   
    58   55   56 2   
    59   55   60 1   
    60   60   61 1   
    61   60   68 1   
    62   61   62 1   
    63   61   64 1   
    64   61   69 1   
    65   62   63 2   
    66   62   72 1   
    67   64   65 1   
    68   64   70 1   
    69   64   71 1   
    70   65   66 1   
    71   65   67 1   
    72   72   73 1   
    73   72   76 1   
    74   73   74 1   
    75   73   77 1   
    76   73   78 1   
    77   74   75 2   
    78   74   79 1   
    79   79   80 1   
    80   79   86 1   
    81   80   81 1   
    82   80   83 1   
    83   80   87 1   
    84   81   82 2   
    85   81   93 1   
    86   83   84 1   
    87   83   85 1   
    88   83   88 1   
    89   84   90 1   
    90   84   91 1   
    91   84   92 1   
    92   85   89 1   
    93   93   94 1   
    94   93  101 1   
    95   94   95 1   
    96   94   97 1   
    97   94  102 1   
    98   95   96 2   
    99   95  112 1   
   100   97   98 1   
   101   97   99 1   
   102   97  103 1   
   103   98  100 1   
   104   98  104 1   
   105   98  105 1   
   106   99  106 1   
   107   99  107 1   
   108   99  108 1   
   109  100  109 1   
   110  100  110 1   
   111  100  111 1   
   112  112  113 1   
   113  112  119 1   
   114  113  114 1   
   115  113  116 1   
   116  113  120 1   
   117  114  115 2   
   118  114  126 1   
   119  116  117 1   
   120  116  118 1   
   121  116  121 1   
   122  117  123 1   
   123  117  124 1   
   124  117  125 1   
   125  118  122 1   
   126  126  127 1   
   127  126  133 1   
   128  127  128 1   
   129  127  130 1   
   130  127  134 1   
   131  128  129 2   
   132  128  140 1   
   133  130  131 1   
   134  130  132 1   
   135  130  135 1   
   136  131  137 1   
   137  131  138 1   
   138  131  139 1   
   139  132  136 1   
   140  140  141 1   
   141  140  149 1   
   142  141  142 1   
   143  141  144 1   
   144  141  150 1   
   145  142  143 2   
   146  142  162 1   
   147  144  145 1   
   148  144  151 1   
   149  144  152 1   
   150  145  146 1   
   151  145  153 1   
   152  145  154 1   
   153  146  147 1   
   154  146  155 1   
   155  146  156 1   
   156  147  148 1   
   157  147  157 1   
   158  147  158 1   
   159  148  159 1   
   160  148  160 1   
   161  148  161 1   
   162  162  163 1   
   163  162  171 1   
   164  163  164 1   
   165  163  166 1   
   166  163  172 1   
   167  164  165 2   
   168  164  177 1   
   169  166  167 1   
   170  166  173 1   
   171  166  174 1   
   172  167  168 1   
   173  167  175 1   
   174  167  176 1   
   175  168  169 1   
   176  168  170 1   
   177  177  178 1   
   178  177  182 1   
   179  178  179 1   
   180  178  180 1   
   181  178  181 1   
   182  184  185 1   
   183  184  186 1   
   184  187  188 1   
   185  187  189 1   
   186  190  191 1   
   187  190  192 1   
@<TRIPOS>SUBSTRUCTURE
     1 MOL         1 TEMP              0 ****  ****    0 ROOT
