@<TRIPOS>MOLECULE
MOL
  195   189     1     0     0
SMALL
resp


@<TRIPOS>ATOM
      1 C1         -2.1970    8.4940   -2.3430 c3        1 MOL     -0.324735
      2 C2         -1.6540    7.1470   -1.7980 c         1 MOL      0.718704
      3 O1         -0.7440    6.6310   -2.4420 o         1 MOL     -0.618206
      4 H1         -1.8630    8.6310   -3.3720 hc        1 MOL      0.074849
      5 H2         -3.2870    8.4860   -2.3150 hc        1 MOL      0.074849
      6 H3         -1.8230    9.3130   -1.7290 hc        1 MOL      0.074849
      7 N1         -2.0860    6.6330   -0.6760 n         1 MOL     -0.426026
      8 C3         -1.4680    5.5160    0.0540 c3        1 MOL     -0.038927
      9 C4         -2.3450    4.2680    0.1540 c         1 MOL      0.419084
     10 O2         -2.1780    3.4350    1.0210 o         1 MOL     -0.509237
     11 C5         -1.1510    6.0040    1.4900 c3        1 MOL     -0.103487
     12 C6         -2.3340    6.5960    2.2990 c         1 MOL      0.700089
     13 O3         -2.6190    6.2450    3.4090 o         1 MOL     -0.677580
     14 O4         -3.0070    7.4870    1.7380 o         1 MOL     -0.677580
     15 H4         -2.7630    7.2020   -0.1820 hn        1 MOL      0.205747
     16 H5         -0.4680    5.2690   -0.3110 h1        1 MOL      0.147861
     17 H6         -0.3260    6.7170    1.4000 hc        1 MOL      0.035020
     18 H7         -0.7820    5.2320    2.1650 hc        1 MOL      0.035020
     19 N2         -3.3950    4.1420   -0.6900 n         1 MOL     -0.308806
     20 C7         -4.4070    3.1790   -0.3940 c3        1 MOL      0.112208
     21 C8         -4.6150    2.1930   -1.5330 c         1 MOL      0.384021
     22 O5         -4.8650    2.6970   -2.6440 o         1 MOL     -0.544845
     23 C9         -5.6860    3.8690    0.0440 c3        1 MOL     -0.200557
     24 C10        -5.4400    4.7450    1.3400 c3        1 MOL      0.440298
     25 C11        -6.6350    5.4940    1.8250 c3        1 MOL     -0.455831
     26 C12        -6.4040    6.0760    3.2450 c3        1 MOL      0.169226
     27 N3         -5.3350    7.1480    3.3380 n4        1 MOL     -0.555710
     28 H8         -3.5430    4.8420   -1.4040 hn        1 MOL      0.222489
     29 H9         -4.1330    2.5020    0.4160 h1        1 MOL      0.084547
     30 H10        -6.4710    3.1140    0.1910 hc        1 MOL      0.032102
     31 H11        -6.0830    4.5460   -0.7140 hc        1 MOL      0.032102
     32 H12        -4.7340    5.5390    1.1250 hc        1 MOL     -0.045521
     33 H13        -5.0820    4.0210    2.0740 hc        1 MOL     -0.045521
     34 H14        -7.4730    4.7920    1.8270 hc        1 MOL      0.114393
     35 H15        -6.7900    6.3240    1.1320 hc        1 MOL      0.114393
     36 H16        -6.0590    5.2890    3.9220 hx        1 MOL      0.062720
     37 H17        -7.3680    6.2540    3.7450 hx        1 MOL      0.062720
     38 H18        -5.4300    7.8410    2.6020 hn        1 MOL      0.351723
     39 H19        -5.4030    7.5830    4.2500 hn        1 MOL      0.351723
     40 H20        -4.4170    6.7520    3.2210 hn        1 MOL      0.351723
     41 N4         -4.6270    0.8870   -1.3600 n         1 MOL     -0.269589
     42 C13        -4.5190    0.0370   -0.1600 c3        1 MOL      0.152307
     43 C14        -5.4530    0.4480    1.0410 c         1 MOL      0.453685
     44 O6         -4.9420    0.9070    2.0510 o         1 MOL     -0.525752
     45 C15        -3.0250   -0.1800    0.2690 c3        1 MOL      0.019110
     46 C16        -2.0580   -0.3390   -0.9180 c         1 MOL      0.608356
     47 O7         -0.8790    0.1260   -0.8230 o         1 MOL     -0.699531
     48 O8         -2.2400   -1.1820   -1.8040 o         1 MOL     -0.699531
     49 H21        -4.9570    0.5010   -2.2370 hn        1 MOL      0.232248
     50 H22        -4.8080   -0.9420   -0.5390 h1        1 MOL      0.089665
     51 H23        -2.9270   -1.0300    0.9400 hc        1 MOL      0.006861
     52 H24        -2.7990    0.7650    0.7620 hc        1 MOL      0.006861
     53 N5         -6.7770    0.1900    1.0110 n         1 MOL     -0.477196
     54 C17        -7.6040   -0.3250   -0.1160 c3        1 MOL      0.150318
     55 C18        -8.0690   -1.7190    0.1060 c         1 MOL      0.509907
     56 O9         -8.0690   -2.2110    1.2380 o         1 MOL     -0.563505
     57 H25        -7.1910    0.6540    1.8140 hn        1 MOL      0.301472
     58 H26        -7.0520   -0.2700   -1.0490 h1        1 MOL      0.030753
     59 H27        -8.4420    0.3480   -0.3010 h1        1 MOL      0.030753
     60 N6         -8.3790   -2.5380   -0.8300 n         1 MOL     -0.490465
     61 C19        -8.0770   -2.4750   -2.3160 c3        1 MOL     -0.043686
     62 C20        -6.6070   -2.7120   -2.7210 c         1 MOL      0.553104
     63 O10        -6.0300   -1.8780   -3.3710 o         1 MOL     -0.511011
     64 C21        -9.0030   -3.4810   -3.0610 c3        1 MOL     -0.233602
     65 C22       -10.5420   -3.5180   -2.6510 c         1 MOL      0.743733
     66 O11       -11.0590   -4.5880   -2.3770 o         1 MOL     -0.633166
     67 O12       -11.2200   -2.4920   -2.7390 o         1 MOL     -0.633166
     68 H28        -8.7410   -3.4260   -0.5110 hn        1 MOL      0.327011
     69 H29        -8.3870   -1.4600   -2.5410 h1        1 MOL      0.107197
     70 H30        -8.6400   -4.5040   -2.9980 hc        1 MOL      0.052985
     71 H31        -9.0120   -3.1370   -4.1020 hc        1 MOL      0.052985
     72 N7         -5.9680   -3.6710   -2.0480 n         1 MOL     -0.504969
     73 C23        -4.5740   -3.6770   -1.8620 c3        1 MOL      0.083344
     74 C24        -4.0270   -3.5380   -0.4640 c         1 MOL      0.585211
     75 O13        -4.7770   -3.3070    0.5070 o         1 MOL     -0.519023
     76 H32        -6.4980   -4.2080   -1.3780 hn        1 MOL      0.316264
     77 H33        -4.1380   -2.8040   -2.3540 h1        1 MOL      0.033977
     78 H34        -4.1510   -4.5920   -2.2860 h1        1 MOL      0.033977
     79 N8         -2.7720   -3.8810   -0.3010 n         1 MOL     -0.821755
     80 C25        -2.1750   -4.0350    1.0590 c3        1 MOL      0.139294
     81 C26        -1.0840   -2.9970    1.3010 c         1 MOL      0.645521
     82 O14        -0.5220   -2.4580    0.3580 o         1 MOL     -0.654516
     83 C27        -1.7870   -5.5630    1.3160 c3        1 MOL      0.338533
     84 C28        -1.5300   -5.8700    2.8010 c3        1 MOL     -0.314631
     85 O15        -0.6840   -6.0110    0.5600 oh        1 MOL     -0.629155
     86 H35        -2.1610   -3.9440   -1.1050 hn        1 MOL      0.403244
     87 H36        -2.9410   -3.7250    1.7780 h1        1 MOL      0.056218
     88 H37        -2.6440   -6.2010    1.1240 h1        1 MOL      0.031223
     89 H38        -1.0960   -6.4780   -0.1700 ho        1 MOL      0.379638
     90 H39        -2.5190   -5.8540    3.2600 hc        1 MOL      0.081278
     91 H40        -1.3850   -6.9490    2.8340 hc        1 MOL      0.081278
     92 H41        -0.7190   -5.2910    3.2590 hc        1 MOL      0.081278
     93 N9         -0.8810   -2.6590    2.5780 n         1 MOL     -0.329828
     94 C29         0.0990   -1.6000    2.9920 c3        1 MOL     -0.011669
     95 C30         1.2050   -2.3180    3.7810 c         1 MOL      0.546500
     96 O16         0.9410   -3.0270    4.8020 o         1 MOL     -0.524966
     97 C31        -0.5720   -0.3620    3.6940 c3        1 MOL      0.313890
     98 C32         0.4470    0.7300    4.1340 c3        1 MOL      0.018101
     99 C33        -1.5490   -0.8430    4.7640 c3        1 MOL     -0.294708
    100 C34         1.2890    0.5120    5.3860 c3        1 MOL     -0.571132
    101 H42        -1.4430   -3.0330    3.3360 hn        1 MOL      0.210740
    102 H43         0.6230   -1.2050    2.1280 h1        1 MOL      0.022328
    103 H44        -1.1500    0.1640    2.9400 hc        1 MOL     -0.045398
    104 H45        -0.1150    1.6540    4.3010 hc        1 MOL      0.025933
    105 H46         1.0110    0.8880    3.2200 hc        1 MOL      0.025933
    106 H47        -1.0310   -1.5070    5.4510 hc        1 MOL      0.075361
    107 H48        -1.9410    0.0080    5.3100 hc        1 MOL      0.075361
    108 H49        -2.3860   -1.3210    4.2540 hc        1 MOL      0.075361
    109 H50         2.3410    0.7270    5.1980 hc        1 MOL      0.150358
    110 H51         0.8760    1.2170    6.1100 hc        1 MOL      0.150358
    111 H52         1.1320   -0.3960    5.9570 hc        1 MOL      0.150358
    112 N10         2.4510   -2.2470    3.2210 n         1 MOL     -0.576020
    113 C35         3.5820   -2.9860    3.8030 c3        1 MOL     -0.062392
    114 C36         4.9250   -2.1650    3.6920 c         1 MOL      0.566187
    115 O17         5.8860   -2.4250    4.4320 o         1 MOL     -0.551185
    116 C37         3.6530   -4.2430    2.8570 c3        1 MOL      0.314934
    117 C38         4.7210   -5.2960    3.1290 c3        1 MOL     -0.432580
    118 O18         3.8950   -3.7650    1.5590 oh        1 MOL     -0.667281
    119 H53         2.5480   -1.7210    2.3640 hn        1 MOL      0.379144
    120 H54         3.3060   -3.3350    4.7970 h1        1 MOL      0.140284
    121 H55         2.6880   -4.7560    2.8840 h1        1 MOL      0.047441
    122 H56         4.1780   -4.5010    1.0050 ho        1 MOL      0.406619
    123 H57         4.7970   -5.9730    2.2840 hc        1 MOL      0.125387
    124 H58         5.7090   -4.8420    3.2710 hc        1 MOL      0.125387
    125 H59         4.4780   -5.8370    4.0390 hc        1 MOL      0.125387
    126 N11         4.8770   -1.1020    2.9290 n         1 MOL     -0.251675
    127 C39         5.9690   -0.0920    2.6340 c3        1 MOL     -0.332499
    128 C40         7.0050   -0.6560    1.7520 c         1 MOL      0.740616
    129 O19         7.7260   -1.5450    2.1740 o         1 MOL     -0.518445
    130 C41         6.4760    0.5420    3.8810 c3        1 MOL      0.471919
    131 C42         5.4650    0.7830    5.0650 c3        1 MOL     -0.441391
    132 O20         7.0260    1.7870    3.4950 oh        1 MOL     -0.650066
    133 H60         4.0380   -0.9860    2.3910 hn        1 MOL      0.210847
    134 H61         5.3620    0.6330    2.0960 h1        1 MOL      0.135179
    135 H62         7.3260   -0.0420    4.2420 h1        1 MOL      0.068383
    136 H63         6.2640    2.3270    3.2960 ho        1 MOL      0.371712
    137 H64         4.4550    0.9580    4.6880 hc        1 MOL      0.118361
    138 H65         5.4990   -0.1800    5.5680 hc        1 MOL      0.118361
    139 H66         5.8860    1.5800    5.6730 hc        1 MOL      0.118361
    140 N12         7.1300   -0.0520    0.5440 n         1 MOL     -0.665854
    141 C43         7.9160   -0.4580   -0.6750 c3        1 MOL      0.249510
    142 C44         7.1470   -0.3880   -2.0210 c         1 MOL      0.476630
    143 O21         7.1730   -1.2970   -2.8070 o         1 MOL     -0.548043
    144 C45         9.1800    0.3740   -0.8520 c3        1 MOL     -0.465183
    145 C46        10.0620    0.1020   -2.1260 c3        1 MOL      0.382555
    146 C47        11.5250    0.5460   -1.8890 c3        1 MOL     -0.251231
    147 C48        11.7740    1.9340   -1.1930 c3        1 MOL      0.171298
    148 N13        13.1870    2.3050   -1.1520 n4        1 MOL     -0.371384
    149 H67         6.5590    0.7800    0.4600 hn        1 MOL      0.307743
    150 H68         8.2670   -1.4880   -0.6110 h1        1 MOL      0.070405
    151 H69         9.7620   -0.0760   -0.0470 hc        1 MOL      0.110162
    152 H70         8.9500    1.4380   -0.7800 hc        1 MOL      0.110162
    153 H71         9.6920    0.6320   -3.0020 hc        1 MOL     -0.036897
    154 H72        10.0830   -0.9590   -2.4080 hc        1 MOL     -0.036897
    155 H73        11.8170    0.4700   -2.9360 hc        1 MOL      0.074195
    156 H74        11.9140   -0.2340   -1.2240 hc        1 MOL      0.074195
    157 H75        11.6500    1.9230   -0.1070 hx        1 MOL      0.045530
    158 H76        11.1570    2.7120   -1.6380 hx        1 MOL      0.045530
    159 H77        13.7110    1.7050   -0.5340 hn        1 MOL      0.266164
    160 H78        13.5010    2.4830   -2.0980 hn        1 MOL      0.266164
    161 H79        13.2420    3.2320   -0.7620 hn        1 MOL      0.266164
    162 N14         6.3080    0.6530   -2.0940 n         1 MOL     -0.234916
    163 C49         5.5950    0.9360   -3.3290 c3        1 MOL     -0.343554
    164 C50         6.5130    1.4530   -4.4430 c         1 MOL      0.550791
    165 O22         7.2610    2.3950   -4.2200 o         1 MOL     -0.531528
    166 C51         4.4020    1.9500   -3.0350 c3        1 MOL     -0.297702
    167 C52         3.5170    1.6050   -1.8050 c3        1 MOL      0.111595
    168 C53         2.6420    0.3970   -2.0640 c         1 MOL      0.594321
    169 O23         1.7890    0.4320   -2.9530 o         1 MOL     -0.691463
    170 O24         2.6930   -0.5750   -1.2520 o         1 MOL     -0.691463
    171 H80         6.4150    1.4310   -1.4560 hn        1 MOL      0.295450
    172 H81         5.1190    0.0050   -3.6440 h1        1 MOL      0.161142
    173 H82         3.8610    2.0450   -3.9760 hc        1 MOL      0.141530
    174 H83         4.9300    2.8950   -2.9530 hc        1 MOL      0.141530
    175 H84         2.9360    2.4990   -1.5710 hc        1 MOL     -0.029329
    176 H85         4.1840    1.3540   -0.9810 hc        1 MOL     -0.029329
    177 N15         6.4600    0.8140   -5.6000 n         1 MOL     -0.279849
    178 C54         7.2970    1.1510   -6.7590 c3        1 MOL     -0.068825
    179 H86         7.6650    2.1730   -6.6560 h1        1 MOL      0.067641
    180 H87         8.1420    0.4640   -6.8090 h1        1 MOL      0.067641
    181 H88         6.7050    1.0690   -7.6710 h1        1 MOL      0.067641
    182 H89         5.7320    0.1260   -5.7210 hn        1 MOL      0.241502
    183 Ca1         0.4280   -1.7790   -2.0500 Ca        1 MOL      1.743945
    184 O25        -0.1530   -1.5740   -4.7510 oh        1 MOL     -0.835246
    185 H90        -0.3630   -0.8570   -5.3440 ho        1 MOL      0.414276
    186 H91         0.3460   -2.1970   -5.2810 ho        1 MOL      0.414276
    187 O26        -0.6920   -4.1170   -2.4450 oh        1 MOL     -0.835246
    188 H92        -0.3910   -5.0250   -2.4870 ho        1 MOL      0.414276
    189 H93        -1.2450   -4.0110   -3.2130 ho        1 MOL      0.414276
    190 O27         2.3040   -2.6700   -3.7020 oh        1 MOL     -0.835246
    191 H94         3.1660   -3.0120   -3.4880 ho        1 MOL      0.414276
    192 H95         2.3090   -2.5500   -4.6550 ho        1 MOL      0.414276
    193 O28         1.9700   -3.4820   -0.7490 oh        1 MOL     -0.835246
    194 H96         2.1940   -4.3530   -1.0740 ho        1 MOL      0.414276
    195 H97         2.3410   -3.4490    0.1320 ho        1 MOL      0.414276
@<TRIPOS>BOND
     1    1    2 1   
     2    1    4 1   
     3    1    5 1   
     4    1    6 1   
     5    2    3 2   
     6    2    7 1   
     7    7    8 1   
     8    7   15 1   
     9    8    9 1   
    10    8   11 1   
    11    8   16 1   
    12    9   10 2   
    13    9   19 1   
    14   11   12 1   
    15   11   17 1   
    16   11   18 1   
    17   12   13 1   
    18   12   14 1   
    19   19   20 1   
    20   19   28 1   
    21   20   21 1   
    22   20   23 1   
    23   20   29 1   
    24   21   22 2   
    25   21   41 1   
    26   23   24 1   
    27   23   30 1   
    28   23   31 1   
    29   24   25 1   
    30   24   32 1   
    31   24   33 1   
    32   25   26 1   
    33   25   34 1   
    34   25   35 1   
    35   26   27 1   
    36   26   36 1   
    37   26   37 1   
    38   27   38 1   
    39   27   39 1   
    40   27   40 1   
    41   41   42 1   
    42   41   49 1   
    43   42   43 1   
    44   42   45 1   
    45   42   50 1   
    46   43   44 2   
    47   43   53 1   
    48   45   46 1   
    49   45   51 1   
    50   45   52 1   
    51   46   47 1   
    52   46   48 1   
    53   53   54 1   
    54   53   57 1   
    55   54   55 1   
    56   54   58 1   
    57   54   59 1   
    58   55   56 2   
    59   55   60 1   
    60   60   61 1   
    61   60   68 1   
    62   61   62 1   
    63   61   64 1   
    64   61   69 1   
    65   62   63 2   
    66   62   72 1   
    67   64   65 1   
    68   64   70 1   
    69   64   71 1   
    70   65   66 1   
    71   65   67 1   
    72   72   73 1   
    73   72   76 1   
    74   73   74 1   
    75   73   77 1   
    76   73   78 1   
    77   74   75 2   
    78   74   79 1   
    79   79   80 1   
    80   79   86 1   
    81   80   81 1   
    82   80   83 1   
    83   80   87 1   
    84   81   82 2   
    85   81   93 1   
    86   83   84 1   
    87   83   85 1   
    88   83   88 1   
    89   84   90 1   
    90   84   91 1   
    91   84   92 1   
    92   85   89 1   
    93   93   94 1   
    94   93  101 1   
    95   94   95 1   
    96   94   97 1   
    97   94  102 1   
    98   95   96 2   
    99   95  112 1   
   100   97   98 1   
   101   97   99 1   
   102   97  103 1   
   103   98  100 1   
   104   98  104 1   
   105   98  105 1   
   106   99  106 1   
   107   99  107 1   
   108   99  108 1   
   109  100  109 1   
   110  100  110 1   
   111  100  111 1   
   112  112  113 1   
   113  112  119 1   
   114  113  114 1   
   115  113  116 1   
   116  113  120 1   
   117  114  115 2   
   118  114  126 1   
   119  116  117 1   
   120  116  118 1   
   121  116  121 1   
   122  117  123 1   
   123  117  124 1   
   124  117  125 1   
   125  118  122 1   
   126  126  127 1   
   127  126  133 1   
   128  127  128 1   
   129  127  130 1   
   130  127  134 1   
   131  128  129 2   
   132  128  140 1   
   133  130  131 1   
   134  130  132 1   
   135  130  135 1   
   136  131  137 1   
   137  131  138 1   
   138  131  139 1   
   139  132  136 1   
   140  140  141 1   
   141  140  149 1   
   142  141  142 1   
   143  141  144 1   
   144  141  150 1   
   145  142  143 2   
   146  142  162 1   
   147  144  145 1   
   148  144  151 1   
   149  144  152 1   
   150  145  146 1   
   151  145  153 1   
   152  145  154 1   
   153  146  147 1   
   154  146  155 1   
   155  146  156 1   
   156  147  148 1   
   157  147  157 1   
   158  147  158 1   
   159  148  159 1   
   160  148  160 1   
   161  148  161 1   
   162  162  163 1   
   163  162  171 1   
   164  163  164 1   
   165  163  166 1   
   166  163  172 1   
   167  164  165 2   
   168  164  177 1   
   169  166  167 1   
   170  166  173 1   
   171  166  174 1   
   172  167  168 1   
   173  167  175 1   
   174  167  176 1   
   175  168  169 1   
   176  168  170 1   
   177  177  178 1   
   178  177  182 1   
   179  178  179 1   
   180  178  180 1   
   181  178  181 1   
   182  184  185 1   
   183  184  186 1   
   184  187  188 1   
   185  187  189 1   
   186  190  191 1   
   187  190  192 1   
   188  193  194 1   
   189  193  195 1   
@<TRIPOS>SUBSTRUCTURE
     1 MOL         1 TEMP              0 ****  ****    0 ROOT
