@<TRIPOS>MOLECULE
MOL
  192   187     1     0     0
SMALL
resp


@<TRIPOS>ATOM
      1 C1          8.7780    1.4180    2.0170 c3        1 MOL     -0.583263
      2 C2          7.9260    0.6690    0.9120 c         1 MOL      0.695512
      3 O1          6.7980    0.2900    1.2010 o         1 MOL     -0.688226
      4 H1          8.1260    2.0720    2.5960 hc        1 MOL      0.153738
      5 H2          9.2380    0.6850    2.6800 hc        1 MOL      0.153738
      6 H3          9.5550    2.0120    1.5370 hc        1 MOL      0.153738
      7 N1          8.4950    0.3820   -0.2840 n         1 MOL     -0.413676
      8 C3          7.7330   -0.1100   -1.4060 c3        1 MOL      0.054047
      9 C4          7.4620   -1.6910   -1.3240 c         1 MOL      0.370785
     10 O2          7.6680   -2.4460   -2.2340 o         1 MOL     -0.445908
     11 C5          8.4600    0.2640   -2.7040 c3        1 MOL     -0.174085
     12 C6          9.9530    0.0300   -2.7090 c         1 MOL      0.716831
     13 O3         10.3690   -0.8380   -3.4740 o         1 MOL     -0.655502
     14 O4         10.7030    0.6740   -1.9900 o         1 MOL     -0.655502
     15 H4          9.4300    0.7250   -0.4500 hn        1 MOL      0.198867
     16 H5          6.7330    0.3020   -1.5240 h1        1 MOL      0.090011
     17 H6          8.1780    1.2840   -2.9600 hc        1 MOL      0.056315
     18 H7          8.1040   -0.3430   -3.5400 hc        1 MOL      0.056315
     19 N2          6.7990   -2.0460   -0.1970 n         1 MOL     -0.076545
     20 C7          6.2680   -3.3610    0.1150 c3        1 MOL     -0.047454
     21 C8          4.7740   -3.5660   -0.3100 c         1 MOL      0.516090
     22 O5          4.5490   -4.5340   -1.0490 o         1 MOL     -0.540315
     23 C9          6.7220   -3.8460    1.5230 c3        1 MOL      0.092252
     24 C10         8.2060   -3.6520    1.7900 c3        1 MOL     -0.189494
     25 C11         8.6150   -3.8400    3.2510 c3        1 MOL      0.062765
     26 C12        10.1540   -3.7230    3.2960 c3        1 MOL      0.061203
     27 N3         10.5740   -3.6550    4.6590 n4        1 MOL     -0.282529
     28 H8          6.6340   -1.3350    0.5130 hn        1 MOL      0.216377
     29 H9          6.8440   -4.0160   -0.5310 h1        1 MOL      0.055359
     30 H10         6.5210   -4.9070    1.6470 hc        1 MOL      0.003637
     31 H11         6.1390   -3.4020    2.3290 hc        1 MOL      0.003637
     32 H12         8.5640   -2.6720    1.4700 hc        1 MOL      0.053593
     33 H13         8.6400   -4.4010    1.1240 hc        1 MOL      0.053593
     34 H14         8.1840   -4.7580    3.6420 hc        1 MOL     -0.000852
     35 H15         8.1600   -3.0290    3.8440 hc        1 MOL     -0.000852
     36 H16        10.4710   -2.8800    2.6860 hx        1 MOL      0.076138
     37 H17        10.5930   -4.6180    2.8530 hx        1 MOL      0.076138
     38 H18        10.3100   -4.5000    5.1430 hn        1 MOL      0.267133
     39 H19        11.5750   -3.5280    4.6930 hn        1 MOL      0.267133
     40 H20        10.2240   -2.8320    5.1290 hn        1 MOL      0.267133
     41 N4          3.8120   -2.7870    0.1070 n         1 MOL     -0.474509
     42 C13         3.8730   -1.5880    0.9760 c3        1 MOL      0.100895
     43 C14         3.9380   -0.3520    0.1770 c         1 MOL      0.171749
     44 O6          3.9160   -0.4750   -1.0390 o         1 MOL     -0.451980
     45 C15         2.5920   -1.7100    1.8760 c3        1 MOL     -0.188855
     46 C16         1.2870   -1.9470    1.1000 c         1 MOL      0.668548
     47 O7          0.8790   -1.1050    0.2650 o         1 MOL     -0.645317
     48 O8          0.7400   -3.0540    1.2070 o         1 MOL     -0.645317
     49 H21         2.8550   -2.9520   -0.1840 hn        1 MOL      0.354557
     50 H22         4.7970   -1.5880    1.5510 h1        1 MOL      0.063529
     51 H23         2.5890   -0.8630    2.5630 hc        1 MOL      0.016493
     52 H24         2.7380   -2.5810    2.5140 hc        1 MOL      0.016493
     53 N5          4.0090    0.7620    0.8620 n         1 MOL      0.024246
     54 C17         4.2060    2.0580    0.1750 c3        1 MOL     -0.187974
     55 C18         2.9630    2.6000   -0.5210 c         1 MOL      0.399659
     56 O9          1.8660    2.0710   -0.5170 o         1 MOL     -0.364052
     57 H25         4.2530    0.7300    1.8460 hn        1 MOL      0.210714
     58 H26         5.0460    2.1810   -0.4950 h1        1 MOL      0.100829
     59 H27         4.2830    2.7540    1.0140 h1        1 MOL      0.100829
     60 N6          3.1660    3.7350   -1.2250 n         1 MOL     -0.455883
     61 C19         2.0540    4.5270   -1.8420 c3        1 MOL      0.263604
     62 C20         2.3670    6.0550   -1.7300 c         1 MOL      0.417716
     63 O10         3.4880    6.4010   -1.4800 o         1 MOL     -0.537722
     64 C21         1.9150    4.2030   -3.3140 c3        1 MOL     -0.275336
     65 C22         1.6690    2.6910   -3.5650 c         1 MOL      0.731073
     66 O11         0.6130    2.2180   -3.0700 o         1 MOL     -0.696830
     67 O12         2.3530    1.9850   -4.3470 o         1 MOL     -0.696830
     68 H28         4.1050    4.0980   -1.2560 hn        1 MOL      0.305008
     69 H29         1.1480    4.3490   -1.2660 h1        1 MOL      0.018979
     70 H30         2.7750    4.5000   -3.9150 hc        1 MOL      0.057429
     71 H31         0.9970    4.5960   -3.7490 hc        1 MOL      0.057429
     72 N7          1.4380    6.9360   -1.9920 n         1 MOL     -0.353461
     73 C23        -0.0540    6.7770   -2.0680 c3        1 MOL     -0.202250
     74 C24        -0.7820    6.1580   -0.8820 c         1 MOL      0.759801
     75 O13        -0.4070    6.4350    0.2270 o         1 MOL     -0.567224
     76 H32         1.8420    7.8560   -2.1120 hn        1 MOL      0.305965
     77 H33        -0.3620    6.2480   -2.9700 h1        1 MOL      0.089714
     78 H34        -0.4570    7.7840   -2.1410 h1        1 MOL      0.089714
     79 N8         -1.8090    5.4270   -1.1150 n         1 MOL     -0.643302
     80 C25        -2.5900    4.8760   -0.0220 c3        1 MOL     -0.069304
     81 C26        -1.7390    3.7490    0.5590 c         1 MOL      0.959819
     82 O14        -1.2100    3.0130   -0.2420 o         1 MOL     -0.705793
     83 C27        -3.9850    4.4210   -0.4870 c3        1 MOL      0.393856
     84 C28        -4.8910    3.7770    0.5430 c3        1 MOL     -0.457284
     85 O15        -4.0380    3.6440   -1.6510 oh        1 MOL     -0.620845
     86 H35        -1.8870    5.1090   -2.0670 hn        1 MOL      0.335492
     87 H36        -2.7650    5.6700    0.6970 h1        1 MOL      0.069414
     88 H37        -4.5200    5.3440   -0.7080 h1        1 MOL      0.022763
     89 H38        -4.5000    4.1590   -2.3160 ho        1 MOL      0.410861
     90 H39        -5.3810    4.4830    1.2100 hc        1 MOL      0.111696
     91 H40        -5.8140    3.3890    0.1090 hc        1 MOL      0.111696
     92 H41        -4.3540    2.9730    1.0500 hc        1 MOL      0.111696
     93 N9         -1.5400    3.5910    1.8540 n         1 MOL     -0.676848
     94 C29        -0.9860    2.4370    2.6270 c3        1 MOL      0.054360
     95 C30        -1.7320    1.1780    2.2810 c         1 MOL      0.364621
     96 O16        -1.7750    0.7290    1.1320 o         1 MOL     -0.409484
     97 C31         0.5340    2.2030    2.5910 c3        1 MOL      0.477665
     98 C32         1.4290    3.5320    2.7210 c3        1 MOL      0.016835
     99 C33         1.0150    1.2320    3.7030 c3        1 MOL     -0.394379
    100 C34         1.1500    4.3280    3.9510 c3        1 MOL     -0.264324
    101 H42        -2.0920    4.1900    2.4510 hn        1 MOL      0.282452
    102 H43        -1.2030    2.6890    3.6670 h1        1 MOL      0.030180
    103 H44         0.8670    1.8200    1.6260 hc        1 MOL     -0.294858
    104 H45         1.2440    4.1340    1.8260 hc        1 MOL      0.022918
    105 H46         2.4650    3.2120    2.6360 hc        1 MOL      0.022918
    106 H47         2.0840    1.0550    3.5180 hc        1 MOL      0.085634
    107 H48         0.9070    1.6210    4.7180 hc        1 MOL      0.085634
    108 H49         0.4620    0.3180    3.5510 hc        1 MOL      0.085634
    109 H50         0.2060    4.8770    3.8890 hc        1 MOL      0.061883
    110 H51         1.2450    3.7280    4.8650 hc        1 MOL      0.061883
    111 H52         1.9190    5.0840    4.0850 hc        1 MOL      0.061883
    112 N10        -2.3890    0.6030    3.2790 n         1 MOL     -0.233524
    113 C35        -2.8770   -0.7720    3.2790 c3        1 MOL     -0.452313
    114 C36        -4.2430   -1.0450    2.6260 c         1 MOL      0.623866
    115 O17        -4.5440   -2.1780    2.3260 o         1 MOL     -0.565050
    116 C37        -2.8520   -1.3920    4.7390 c3        1 MOL      0.427363
    117 C38        -3.7740   -0.9180    5.8730 c3        1 MOL     -0.301375
    118 O18        -1.5750   -1.1090    5.2710 oh        1 MOL     -0.632219
    119 H53        -2.3260    1.0460    4.1810 hn        1 MOL      0.269723
    120 H54        -2.1200   -1.3740    2.7860 h1        1 MOL      0.181119
    121 H55        -2.9760   -2.4740    4.8070 h1        1 MOL      0.035218
    122 H56        -0.9410   -1.7220    4.8810 ho        1 MOL      0.400344
    123 H57        -3.5710    0.1210    6.1430 hc        1 MOL      0.087248
    124 H58        -4.8400   -1.0550    5.7280 hc        1 MOL      0.087248
    125 H59        -3.5920   -1.5530    6.7420 hc        1 MOL      0.087248
    126 N11        -5.0480   -0.0200    2.6130 n         1 MOL     -0.226974
    127 C39        -6.4560   -0.1520    2.2000 c3        1 MOL     -0.276209
    128 C40        -6.4960   -0.7120    0.7720 c         1 MOL      0.687965
    129 O19        -5.9770   -0.0470   -0.1480 o         1 MOL     -0.592984
    130 C41        -7.3060    1.1460    2.2010 c3        1 MOL      0.440720
    131 C42        -8.7290    0.8590    1.8730 c3        1 MOL     -0.401457
    132 O20        -7.3740    1.6140    3.5070 oh        1 MOL     -0.621953
    133 H60        -4.6090    0.8580    2.8410 hn        1 MOL      0.176383
    134 H61        -7.0160   -0.8600    2.8210 h1        1 MOL      0.108336
    135 H62        -6.8970    1.9120    1.5410 h1        1 MOL      0.013180
    136 H63        -6.6220    2.1570    3.7260 ho        1 MOL      0.386045
    137 H64        -8.9150    0.6250    0.8280 hc        1 MOL      0.106842
    138 H65        -9.1170    0.0860    2.5430 hc        1 MOL      0.106842
    139 H66        -9.2600    1.8020    2.0430 hc        1 MOL      0.106842
    140 N12        -7.0140   -1.9200    0.6510 n         1 MOL     -0.445883
    141 C43        -7.2710   -2.7320   -0.5470 c3        1 MOL      0.160343
    142 C44        -6.0390   -2.8270   -1.4180 c         1 MOL      0.606395
    143 O21        -6.2110   -2.7390   -2.6350 o         1 MOL     -0.545806
    144 C45        -8.5490   -2.3440   -1.3070 c3        1 MOL     -0.309191
    145 C46        -9.8110   -2.5640   -0.4720 c3        1 MOL      0.070727
    146 C47       -11.1300   -1.9540   -0.8920 c3        1 MOL     -0.072099
    147 C48       -11.2010   -0.4430   -0.6440 c3        1 MOL      0.166573
    148 N13       -12.3620    0.1770   -1.2510 n4        1 MOL     -0.253794
    149 H67        -7.3070   -2.4400    1.4670 hn        1 MOL      0.260138
    150 H68        -7.2940   -3.7930   -0.3040 h1        1 MOL      0.053986
    151 H69        -8.6130   -2.9290   -2.2300 hc        1 MOL      0.117138
    152 H70        -8.4170   -1.3110   -1.6320 hc        1 MOL      0.117138
    153 H71        -9.6790   -2.1760    0.5470 hc        1 MOL      0.005625
    154 H72        -9.9700   -3.6460   -0.3830 hc        1 MOL      0.005625
    155 H73       -11.9200   -2.4860   -0.3610 hc        1 MOL      0.046944
    156 H74       -11.3680   -2.1070   -1.9480 hc        1 MOL      0.046944
    157 H75       -10.4040    0.1510   -1.0870 hx        1 MOL      0.013364
    158 H76       -11.2520   -0.2470    0.4230 hx        1 MOL      0.013364
    159 H77       -13.2180   -0.1030   -0.7990 hn        1 MOL      0.212046
    160 H78       -12.2740    1.1680   -1.1160 hn        1 MOL      0.212046
    161 H79       -12.4730    0.0320   -2.2460 hn        1 MOL      0.212046
    162 N14        -4.8590   -3.1800   -0.8780 n         1 MOL     -0.641634
    163 C49        -3.5960   -3.1850   -1.5620 c3        1 MOL      0.556098
    164 C50        -2.3910   -2.6840   -0.6800 c         1 MOL      0.374800
    165 O22        -1.8760   -1.5940   -0.8620 o         1 MOL     -0.638652
    166 C51        -3.2040   -4.4890   -2.1650 c3        1 MOL     -0.268258
    167 C52        -3.5130   -4.3870   -3.6550 c3        1 MOL     -0.058674
    168 C53        -3.2190   -5.6810   -4.3890 c         1 MOL      0.693503
    169 O23        -3.7230   -6.7720   -4.0040 o         1 MOL     -0.630486
    170 O24        -2.5170   -5.5780   -5.4040 o         1 MOL     -0.630486
    171 H80        -4.7190   -3.1910    0.1290 hn        1 MOL      0.299458
    172 H81        -3.5870   -2.4160   -2.3400 h1        1 MOL     -0.068157
    173 H82        -3.7170   -5.3080   -1.6590 hc        1 MOL      0.073235
    174 H83        -2.1320   -4.6920   -2.1780 hc        1 MOL      0.073235
    175 H84        -2.7890   -3.6710   -4.0440 hc        1 MOL      0.000983
    176 H85        -4.5200   -4.0740   -3.9160 hc        1 MOL      0.000983
    177 N15        -1.8940   -3.4300    0.3490 n         1 MOL     -0.244756
    178 C54        -2.1760   -4.7930    0.7740 c3        1 MOL      0.006869
    179 H86        -2.1450   -5.4570   -0.0900 h1        1 MOL      0.025211
    180 H87        -1.4280   -5.1090    1.5020 h1        1 MOL      0.025211
    181 H88        -3.1660   -4.8350    1.2280 h1        1 MOL      0.025211
    182 H89        -1.1160   -2.9430    0.7750 hn        1 MOL      0.257223
    183 Ca1        -0.3210    0.4890   -1.2700 Ca        1 MOL      1.812258
    184 O25        -2.7880    1.3020   -2.2120 oh        1 MOL     -0.932296
    185 H90        -3.3270    1.9660   -1.7900 ho        1 MOL      0.454482
    186 H91        -3.3770    0.8330   -2.7870 ho        1 MOL      0.454482
    187 O26        -1.1010   -1.1810   -3.6000 oh        1 MOL     -0.932296
    188 H92        -0.5300   -1.8630   -3.9570 ho        1 MOL      0.454482
    189 H93        -1.9550   -1.3430   -4.0040 ho        1 MOL      0.454482
    190 O27         1.6220   -0.6160   -2.4910 oh        1 MOL     -0.932296
    191 H94         2.4210   -0.9210   -2.0650 ho        1 MOL      0.454482
    192 H95         1.8670   -0.5270   -3.4110 ho        1 MOL      0.454482
@<TRIPOS>BOND
     1    1    2 1   
     2    1    4 1   
     3    1    5 1   
     4    1    6 1   
     5    2    3 2   
     6    2    7 1   
     7    7    8 1   
     8    7   15 1   
     9    8    9 1   
    10    8   11 1   
    11    8   16 1   
    12    9   10 2   
    13    9   19 1   
    14   11   12 1   
    15   11   17 1   
    16   11   18 1   
    17   12   13 1   
    18   12   14 1   
    19   19   20 1   
    20   19   28 1   
    21   20   21 1   
    22   20   23 1   
    23   20   29 1   
    24   21   22 2   
    25   21   41 1   
    26   23   24 1   
    27   23   30 1   
    28   23   31 1   
    29   24   25 1   
    30   24   32 1   
    31   24   33 1   
    32   25   26 1   
    33   25   34 1   
    34   25   35 1   
    35   26   27 1   
    36   26   36 1   
    37   26   37 1   
    38   27   38 1   
    39   27   39 1   
    40   27   40 1   
    41   41   42 1   
    42   41   49 1   
    43   42   43 1   
    44   42   45 1   
    45   42   50 1   
    46   43   44 2   
    47   43   53 1   
    48   45   46 1   
    49   45   51 1   
    50   45   52 1   
    51   46   47 1   
    52   46   48 1   
    53   53   54 1   
    54   53   57 1   
    55   54   55 1   
    56   54   58 1   
    57   54   59 1   
    58   55   56 2   
    59   55   60 1   
    60   60   61 1   
    61   60   68 1   
    62   61   62 1   
    63   61   64 1   
    64   61   69 1   
    65   62   63 2   
    66   62   72 1   
    67   64   65 1   
    68   64   70 1   
    69   64   71 1   
    70   65   66 1   
    71   65   67 1   
    72   72   73 1   
    73   72   76 1   
    74   73   74 1   
    75   73   77 1   
    76   73   78 1   
    77   74   75 2   
    78   74   79 1   
    79   79   80 1   
    80   79   86 1   
    81   80   81 1   
    82   80   83 1   
    83   80   87 1   
    84   81   82 2   
    85   81   93 1   
    86   83   84 1   
    87   83   85 1   
    88   83   88 1   
    89   84   90 1   
    90   84   91 1   
    91   84   92 1   
    92   85   89 1   
    93   93   94 1   
    94   93  101 1   
    95   94   95 1   
    96   94   97 1   
    97   94  102 1   
    98   95   96 2   
    99   95  112 1   
   100   97   98 1   
   101   97   99 1   
   102   97  103 1   
   103   98  100 1   
   104   98  104 1   
   105   98  105 1   
   106   99  106 1   
   107   99  107 1   
   108   99  108 1   
   109  100  109 1   
   110  100  110 1   
   111  100  111 1   
   112  112  113 1   
   113  112  119 1   
   114  113  114 1   
   115  113  116 1   
   116  113  120 1   
   117  114  115 2   
   118  114  126 1   
   119  116  117 1   
   120  116  118 1   
   121  116  121 1   
   122  117  123 1   
   123  117  124 1   
   124  117  125 1   
   125  118  122 1   
   126  126  127 1   
   127  126  133 1   
   128  127  128 1   
   129  127  130 1   
   130  127  134 1   
   131  128  129 2   
   132  128  140 1   
   133  130  131 1   
   134  130  132 1   
   135  130  135 1   
   136  131  137 1   
   137  131  138 1   
   138  131  139 1   
   139  132  136 1   
   140  140  141 1   
   141  140  149 1   
   142  141  142 1   
   143  141  144 1   
   144  141  150 1   
   145  142  143 2   
   146  142  162 1   
   147  144  145 1   
   148  144  151 1   
   149  144  152 1   
   150  145  146 1   
   151  145  153 1   
   152  145  154 1   
   153  146  147 1   
   154  146  155 1   
   155  146  156 1   
   156  147  148 1   
   157  147  157 1   
   158  147  158 1   
   159  148  159 1   
   160  148  160 1   
   161  148  161 1   
   162  162  163 1   
   163  162  171 1   
   164  163  164 1   
   165  163  166 1   
   166  163  172 1   
   167  164  165 2   
   168  164  177 1   
   169  166  167 1   
   170  166  173 1   
   171  166  174 1   
   172  167  168 1   
   173  167  175 1   
   174  167  176 1   
   175  168  169 1   
   176  168  170 1   
   177  177  178 1   
   178  177  182 1   
   179  178  179 1   
   180  178  180 1   
   181  178  181 1   
   182  184  185 1   
   183  184  186 1   
   184  187  188 1   
   185  187  189 1   
   186  190  191 1   
   187  190  192 1   
@<TRIPOS>SUBSTRUCTURE
     1 MOL         1 TEMP              0 ****  ****    0 ROOT
