@<TRIPOS>MOLECULE
MOL
  181   177     1     0     0
SMALL
resp


@<TRIPOS>ATOM
      1 C1         -2.8810    1.3270    4.4250 c3        1 MOL     -0.214586
      2 C2         -3.2330   -0.0960    3.8490 c         1 MOL      0.576698
      3 O1         -2.4500   -0.7180    3.1650 o         1 MOL     -0.547059
      4 H1         -3.1900    1.3820    5.4680 hc        1 MOL      0.044811
      5 H2         -1.8060    1.4910    4.3560 hc        1 MOL      0.044811
      6 H3         -3.4030    2.0910    3.8510 hc        1 MOL      0.044811
      7 N1         -4.4010   -0.6470    4.1880 n         1 MOL     -0.469203
      8 C3         -4.7770   -2.0200    3.7160 c3        1 MOL      0.099540
      9 C4         -5.1420   -1.9120    2.2030 c         1 MOL      0.562438
     10 O2         -4.8120   -2.7850    1.4230 o         1 MOL     -0.597009
     11 C5         -5.9420   -2.6220    4.4860 c3        1 MOL     -0.316417
     12 C6         -7.2320   -1.7640    4.5720 c         1 MOL      0.745895
     13 O3         -7.1570   -0.5530    4.3510 o         1 MOL     -0.720252
     14 O4         -8.2490   -2.2900    5.0580 o         1 MOL     -0.720252
     15 H4         -5.0030   -0.1430    4.8300 hn        1 MOL      0.293264
     16 H5         -3.9380   -2.6860    3.9080 h1        1 MOL      0.056310
     17 H6         -5.6490   -2.7670    5.5290 hc        1 MOL      0.064505
     18 H7         -6.2310   -3.5640    4.0210 hc        1 MOL      0.064505
     19 N2         -5.7860   -0.8210    1.9010 n         1 MOL     -0.337912
     20 C7         -6.1620   -0.4900    0.5510 c3        1 MOL      0.305574
     21 C8         -5.1640   -0.8540   -0.5200 c         1 MOL      0.392519
     22 O5         -4.1550   -0.1610   -0.5410 o         1 MOL     -0.578361
     23 C9         -7.5850   -0.8030    0.1980 c3        1 MOL     -0.315429
     24 H8         -6.0800   -0.2010    2.6350 hn        1 MOL      0.233127
     25 H9         -6.0640    0.5940    0.6050 h1        1 MOL      0.017722
     26 H10        -8.3160   -0.1940    0.7260 hc        1 MOL      0.063400
     27 H11        -7.7810   -0.5710   -0.8500 hc        1 MOL      0.063400
     28 H12        -7.6770   -1.8810    0.3530 hc        1 MOL      0.063400
     29 N3         -5.4880   -1.7730   -1.4200 n         1 MOL     -0.251637
     30 C10        -4.5960   -2.2200   -2.5090 c3        1 MOL      0.091464
     31 C11        -4.2800   -3.7510   -2.5760 c         1 MOL      0.451755
     32 O6         -3.8830   -4.2400   -3.6440 o         1 MOL     -0.506844
     33 C12        -4.9150   -1.5650   -3.8200 c3        1 MOL     -0.410512
     34 C13        -5.1520   -0.0540   -3.6610 c         1 MOL      0.811953
     35 O7         -6.3260    0.3920   -3.7500 o         1 MOL     -0.735581
     36 O8         -4.2770    0.7630   -3.2740 o         1 MOL     -0.735581
     37 H13        -6.3520   -2.2740   -1.3320 hn        1 MOL      0.224504
     38 H14        -3.6210   -1.8520   -2.1780 h1        1 MOL      0.107090
     39 H15        -5.8550   -1.9770   -4.1950 hc        1 MOL      0.089740
     40 H16        -4.1170   -1.7410   -4.5500 hc        1 MOL      0.089740
     41 N4         -4.4040   -4.3630   -1.4220 n         1 MOL     -0.327217
     42 C14        -3.8390   -5.6750   -1.0620 c3        1 MOL     -0.161650
     43 C15        -2.3200   -5.7240   -1.3390 c         1 MOL      0.588279
     44 O9         -1.7750   -6.8090   -1.5040 o         1 MOL     -0.586137
     45 H17        -4.8120   -3.8200   -0.6710 hn        1 MOL      0.242045
     46 H18        -4.3430   -6.4520   -1.6390 h1        1 MOL      0.108054
     47 H19        -4.0510   -5.8870   -0.0080 h1        1 MOL      0.108054
     48 N5         -1.5560   -4.6370   -1.3410 n         1 MOL     -0.252126
     49 C16        -0.2320   -4.6180   -1.8360 c3        1 MOL     -0.212479
     50 C17         0.7810   -5.4960   -1.0370 c         1 MOL      0.602589
     51 O10         0.8030   -5.3960    0.1920 o         1 MOL     -0.519053
     52 C18         0.1690   -3.1540   -2.0470 c3        1 MOL     -0.508767
     53 C19        -0.4860   -2.6450   -3.2840 c         1 MOL      0.852731
     54 N6         -1.3460   -1.6430   -3.2490 n         1 MOL     -0.817222
     55 O11        -0.2050   -3.0350   -4.3920 o         1 MOL     -0.630010
     56 H20        -1.9930   -3.7710   -1.0810 hn        1 MOL      0.238175
     57 H21        -0.3050   -5.0970   -2.8160 h1        1 MOL      0.115245
     58 H22         1.2380   -3.1340   -2.2390 hc        1 MOL      0.198715
     59 H23         0.0040   -2.5020   -1.1840 hc        1 MOL      0.198715
     60 H24        -1.6280   -1.3460   -2.3200 hn        1 MOL      0.375702
     61 H25        -1.6770   -1.1920   -4.0890 hn        1 MOL      0.375702
     62 N7          1.6920   -6.1000   -1.8220 n         1 MOL     -0.257079
     63 C20         2.9190   -6.6960   -1.3880 c3        1 MOL     -0.343380
     64 C21         4.1060   -5.7720   -1.1070 c         1 MOL      0.637270
     65 O12         4.5220   -4.9700   -1.9620 o         1 MOL     -0.532755
     66 H26         1.4140   -6.2680   -2.7840 hn        1 MOL      0.263242
     67 H27         3.2740   -7.4290   -2.1130 h1        1 MOL      0.128406
     68 H28         2.6390   -7.1960   -0.4600 h1        1 MOL      0.128406
     69 N8          4.8390   -5.9060   -0.0080 n         1 MOL     -0.384571
     70 C22         6.1400   -5.1440    0.1470 c3        1 MOL     -0.481200
     71 C23         5.9900   -3.7360    0.7280 c         1 MOL      0.456668
     72 O13         6.9440   -3.0100    0.8410 o         1 MOL     -0.559254
     73 C24         7.1490   -6.0450    0.9540 c3        1 MOL      0.362865
     74 C25         6.9430   -6.1550    2.4670 c3        1 MOL     -0.179683
     75 O14         7.1380   -7.3280    0.4190 oh        1 MOL     -0.570023
     76 H29         4.5680   -6.5260    0.7420 hn        1 MOL      0.300117
     77 H30         6.5800   -4.9960   -0.8410 h1        1 MOL      0.255695
     78 H31         8.2020   -5.7720    0.9530 h1        1 MOL      0.070798
     79 H32         6.2640   -7.6700    0.5990 ho        1 MOL      0.340675
     80 H33         7.3770   -5.3850    3.0910 hc        1 MOL      0.036158
     81 H34         5.8770   -6.1350    2.6810 hc        1 MOL      0.036158
     82 H35         7.5060   -7.0340    2.7860 hc        1 MOL      0.036158
     83 N9          4.8020   -3.3170    0.9160 n         1 MOL      0.196194
     84 C26         4.3450   -2.0510    1.3250 c3        1 MOL     -0.358821
     85 C27         3.0290   -1.6590    0.6400 c         1 MOL      0.216378
     86 O15         2.2460   -2.4800    0.1530 o         1 MOL     -0.302998
     87 C28         4.1880   -2.0240    2.9550 c3        1 MOL      0.050101
     88 C29         3.0230   -2.8720    3.4870 c3        1 MOL     -0.049971
     89 C30         5.5160   -2.1520    3.6990 c3        1 MOL     -0.286952
     90 C31         2.4920   -2.7350    4.9130 c3        1 MOL     -0.048897
     91 H36         4.0300   -3.8770    0.5680 hn        1 MOL      0.071271
     92 H37         5.0670   -1.2810    1.0430 h1        1 MOL      0.212682
     93 H38         3.9340   -0.9830    3.1520 hc        1 MOL      0.035341
     94 H39         3.1940   -3.9100    3.1970 hc        1 MOL      0.044589
     95 H40         2.1820   -2.6160    2.8430 hc        1 MOL      0.044589
     96 H41         5.7160   -3.2070    3.8650 hc        1 MOL      0.076092
     97 H42         6.3190   -1.5980    3.2070 hc        1 MOL      0.076092
     98 H43         5.4950   -1.6400    4.6570 hc        1 MOL      0.076092
     99 H44         2.0090   -1.7660    5.0300 hc        1 MOL      0.018119
    100 H45         1.7740   -3.5310    5.1030 hc        1 MOL      0.018119
    101 H46         3.2330   -2.8080    5.6990 hc        1 MOL      0.018119
    102 N10         2.7850   -0.3980    0.4100 n         1 MOL     -0.141144
    103 C32         1.6390    0.0890   -0.3400 c3        1 MOL      0.002147
    104 C33         2.1560    1.1280   -1.3640 c         1 MOL      0.552950
    105 O16         1.9460    0.8800   -2.5590 o         1 MOL     -0.539674
    106 C34         0.6560    0.6420    0.6690 c3        1 MOL     -0.572124
    107 C35        -0.5820    1.1150   -0.1460 c         1 MOL      0.831853
    108 O17        -1.3540    0.2410   -0.5740 o         1 MOL     -0.717246
    109 O18        -0.7550    2.3130   -0.3360 o         1 MOL     -0.717246
    110 H47         3.3670    0.2870    0.8500 hn        1 MOL      0.184769
    111 H48         1.1480   -0.6920   -0.9230 h1        1 MOL      0.062560
    112 H49         1.0560    1.4650    1.2520 hc        1 MOL      0.181822
    113 H50         0.3160   -0.2150    1.2570 hc        1 MOL      0.181822
    114 N11         2.7460    2.2230   -0.9080 n         1 MOL     -0.352047
    115 C36         3.2670    3.2920   -1.8240 c3        1 MOL      0.054782
    116 C37         3.3260    4.5450   -1.0520 c         1 MOL      0.239533
    117 O19         3.6240    4.5000    0.1350 o         1 MOL     -0.464979
    118 C38         4.7110    2.9850   -2.3220 c3        1 MOL     -0.331157
    119 C39         5.5810    2.3590   -1.2150 ca        1 MOL      0.110235
    120 C40         6.4380    3.2630   -0.5150 ca        1 MOL     -0.123983
    121 C41         5.8110    0.9980   -1.0740 ca        1 MOL     -0.123983
    122 C42         7.4800    2.7590    0.3180 ca        1 MOL     -0.143288
    123 C43         6.8120    0.4790   -0.2180 ca        1 MOL     -0.143288
    124 C44         7.6990    1.3770    0.4440 ca        1 MOL     -0.119247
    125 H51         2.8380    2.3790    0.0890 hn        1 MOL      0.306054
    126 H52         2.5960    3.4860   -2.6490 h1        1 MOL      0.058779
    127 H53         5.0900    3.9520   -2.6660 hc        1 MOL      0.127707
    128 H54         4.6530    2.3290   -3.1920 hc        1 MOL      0.127707
    129 H55         6.3570    4.3320   -0.6480 ha        1 MOL      0.118841
    130 H56         5.2030    0.3390   -1.6750 ha        1 MOL      0.118841
    131 H57         8.0660    3.5500    0.7590 ha        1 MOL      0.112219
    132 H58         6.9650   -0.5830   -0.2810 ha        1 MOL      0.112219
    133 H59         8.4420    0.9670    1.1150 ha        1 MOL      0.118388
    134 N12         3.0480    5.6760   -1.6390 n         1 MOL      0.017469
    135 C45         3.1170    7.0600   -1.0230 c3        1 MOL      0.008371
    136 C46         2.2690    7.1580    0.2580 c         1 MOL      0.188697
    137 O20         2.5250    8.0060    1.1320 o         1 MOL     -0.482596
    138 C47         2.5830    7.9320   -2.1680 c3        1 MOL      0.138760
    139 C48         3.1620    7.2720   -3.4370 c3        1 MOL     -0.265560
    140 C49         2.9940    5.8000   -3.1090 c3        1 MOL     -0.129061
    141 H60         4.1760    7.2960   -0.9090 h1        1 MOL      0.090442
    142 H61         1.4980    7.9530   -2.2360 hc        1 MOL      0.010634
    143 H62         2.9290    8.9590   -2.0450 hc        1 MOL      0.010634
    144 H63         2.5870    7.5810   -4.3100 hc        1 MOL      0.093325
    145 H64         4.2290    7.4650   -3.4710 hc        1 MOL      0.093325
    146 H65         2.0560    5.4250   -3.5200 h1        1 MOL      0.101603
    147 H66         3.7460    5.1710   -3.5900 h1        1 MOL      0.101603
    148 N13         1.2410    6.3710    0.4690 n         1 MOL      0.016863
    149 C50         0.4590    6.4060    1.6820 c3        1 MOL     -0.390579
    150 C51         1.2250    5.8920    2.9080 c         1 MOL      0.486545
    151 O21         0.9170    6.2020    4.0980 o         1 MOL     -0.550897
    152 C52        -0.7910    5.6220    1.4710 c3        1 MOL      0.214381
    153 C53        -1.7340    6.2770    0.4170 c3        1 MOL      0.012853
    154 C54        -3.0470    5.4750    0.2960 c         1 MOL      0.633825
    155 O22        -3.8130    5.5410    1.2750 o         1 MOL     -0.697207
    156 O23        -3.2010    4.6950   -0.6980 o         1 MOL     -0.697207
    157 H67         0.8570    5.8150   -0.2820 hn        1 MOL      0.155719
    158 H68         0.2290    7.4740    1.8050 h1        1 MOL      0.165942
    159 H69        -1.2970    5.7200    2.4350 hc        1 MOL      0.002513
    160 H70        -0.5470    4.5610    1.3790 hc        1 MOL      0.002513
    161 H71        -1.2650    6.2860   -0.5670 hc        1 MOL     -0.038372
    162 H72        -1.9960    7.3080    0.6200 hc        1 MOL     -0.038372
    163 N14         2.2160    5.0050    2.7370 n         1 MOL     -0.063001
    164 C55         3.0280    4.5350    3.7770 c3        1 MOL     -0.318824
    165 H73         2.8920    5.1640    4.6570 h1        1 MOL      0.113329
    166 H74         2.7530    3.5080    4.0190 h1        1 MOL      0.113329
    167 H75         4.0730    4.5680    3.4670 h1        1 MOL      0.113329
    168 H76         2.3340    4.6630    1.7960 hn        1 MOL      0.138070
    169 Ca1        -3.2240    2.0780   -1.3240 Ca        1 MOL      1.725208
    170 O24        -3.8190    2.7640    1.2420 oh        1 MOL     -0.855675
    171 H77        -4.5630    2.4500    1.7520 ho        1 MOL      0.405597
    172 H78        -3.8430    3.7170    1.3480 ho        1 MOL      0.405597
    173 O25        -3.8470    3.7080   -3.4410 oh        1 MOL     -0.855675
    174 H79        -4.2940    4.4970   -3.1390 ho        1 MOL      0.405597
    175 H80        -4.3350    3.4500   -4.2300 ho        1 MOL      0.405597
    176 O26        -1.0960    1.8090   -3.1290 oh        1 MOL     -0.855675
    177 H81        -1.1730    1.4460   -4.0160 ho        1 MOL      0.405597
    178 H82        -0.2370    2.2240   -3.1180 ho        1 MOL      0.405597
    179 O27        -6.0700    2.1760   -1.4840 oh        1 MOL     -0.855675
    180 H83        -6.2770    1.6880   -2.2850 ho        1 MOL      0.405597
    181 H84        -6.9130    2.4780   -1.1610 ho        1 MOL      0.405597
@<TRIPOS>BOND
     1    1    2 1   
     2    1    4 1   
     3    1    5 1   
     4    1    6 1   
     5    2    3 2   
     6    2    7 1   
     7    7    8 1   
     8    7   15 1   
     9    8    9 1   
    10    8   11 1   
    11    8   16 1   
    12    9   10 2   
    13    9   19 1   
    14   11   12 1   
    15   11   17 1   
    16   11   18 1   
    17   12   13 1   
    18   12   14 1   
    19   19   20 1   
    20   19   24 1   
    21   20   21 1   
    22   20   23 1   
    23   20   25 1   
    24   21   22 2   
    25   21   29 1   
    26   23   26 1   
    27   23   27 1   
    28   23   28 1   
    29   29   30 1   
    30   29   37 1   
    31   30   31 1   
    32   30   33 1   
    33   30   38 1   
    34   31   32 2   
    35   31   41 1   
    36   33   34 1   
    37   33   39 1   
    38   33   40 1   
    39   34   35 1   
    40   34   36 1   
    41   41   42 1   
    42   41   45 1   
    43   42   43 1   
    44   42   46 1   
    45   42   47 1   
    46   43   44 2   
    47   43   48 1   
    48   48   49 1   
    49   48   56 1   
    50   49   50 1   
    51   49   52 1   
    52   49   57 1   
    53   50   51 2   
    54   50   62 1   
    55   52   53 1   
    56   52   58 1   
    57   52   59 1   
    58   53   54 1   
    59   53   55 2   
    60   54   60 1   
    61   54   61 1   
    62   62   63 1   
    63   62   66 1   
    64   63   64 1   
    65   63   67 1   
    66   63   68 1   
    67   64   65 2   
    68   64   69 1   
    69   69   70 1   
    70   69   76 1   
    71   70   71 1   
    72   70   73 1   
    73   70   77 1   
    74   71   72 2   
    75   71   83 1   
    76   73   74 1   
    77   73   75 1   
    78   73   78 1   
    79   74   80 1   
    80   74   81 1   
    81   74   82 1   
    82   75   79 1   
    83   83   84 1   
    84   83   91 1   
    85   84   85 1   
    86   84   87 1   
    87   84   92 1   
    88   85   86 2   
    89   85  102 1   
    90   87   88 1   
    91   87   89 1   
    92   87   93 1   
    93   88   90 1   
    94   88   94 1   
    95   88   95 1   
    96   89   96 1   
    97   89   97 1   
    98   89   98 1   
    99   90   99 1   
   100   90  100 1   
   101   90  101 1   
   102  102  103 1   
   103  102  110 1   
   104  103  104 1   
   105  103  106 1   
   106  103  111 1   
   107  104  105 2   
   108  104  114 1   
   109  106  107 1   
   110  106  112 1   
   111  106  113 1   
   112  107  108 1   
   113  107  109 1   
   114  114  115 1   
   115  114  125 1   
   116  115  116 1   
   117  115  118 1   
   118  115  126 1   
   119  116  117 2   
   120  116  134 1   
   121  118  119 1   
   122  118  127 1   
   123  118  128 1   
   124  119  120 ar  
   125  119  121 ar  
   126  120  122 ar  
   127  120  129 1   
   128  121  123 ar  
   129  121  130 1   
   130  122  124 ar  
   131  122  131 1   
   132  123  124 ar  
   133  123  132 1   
   134  124  133 1   
   135  134  135 1   
   136  134  140 1   
   137  135  136 1   
   138  135  138 1   
   139  135  141 1   
   140  136  137 2   
   141  136  148 1   
   142  138  139 1   
   143  138  142 1   
   144  138  143 1   
   145  139  140 1   
   146  139  144 1   
   147  139  145 1   
   148  140  146 1   
   149  140  147 1   
   150  148  149 1   
   151  148  157 1   
   152  149  150 1   
   153  149  152 1   
   154  149  158 1   
   155  150  151 2   
   156  150  163 1   
   157  152  153 1   
   158  152  159 1   
   159  152  160 1   
   160  153  154 1   
   161  153  161 1   
   162  153  162 1   
   163  154  155 1   
   164  154  156 1   
   165  163  164 1   
   166  163  168 1   
   167  164  165 1   
   168  164  166 1   
   169  164  167 1   
   170  170  171 1   
   171  170  172 1   
   172  173  174 1   
   173  173  175 1   
   174  176  177 1   
   175  176  178 1   
   176  179  180 1   
   177  179  181 1   
@<TRIPOS>SUBSTRUCTURE
     1 MOL         1 TEMP              0 ****  ****    0 ROOT
