@<TRIPOS>MOLECULE
MOL
  192   187     1     0     0
SMALL
resp


@<TRIPOS>ATOM
      1 C1          4.2910   -2.6210   -3.8140 c3        1 MOL     -0.242316
      2 C2          3.5590   -2.5160   -2.4300 c         1 MOL      0.649181
      3 O1          2.8000   -1.5840   -2.1630 o         1 MOL     -0.502523
      4 H1          3.6820   -2.1470   -4.5830 hc        1 MOL      0.041622
      5 H2          5.2570   -2.1180   -3.7550 hc        1 MOL      0.041622
      6 H3          4.4420   -3.6710   -4.0680 hc        1 MOL      0.041622
      7 N1          3.9430   -3.4480   -1.5360 n         1 MOL     -0.365165
      8 C3          3.4220   -3.5660   -0.1990 c3        1 MOL     -0.151722
      9 C4          1.8280   -3.6520   -0.1080 c         1 MOL      0.689733
     10 O2          1.1870   -3.1190    0.8330 o         1 MOL     -0.552681
     11 C5          4.0540   -2.5020    0.7080 c3        1 MOL      0.079421
     12 C6          5.5270   -2.5770    0.6390 c         1 MOL      0.562609
     13 O3          6.1600   -3.3080    1.3970 o         1 MOL     -0.747826
     14 O4          6.1280   -1.9340   -0.2360 o         1 MOL     -0.747826
     15 H4          4.7780   -3.9820   -1.7520 hn        1 MOL      0.214610
     16 H5          3.8090   -4.4840    0.2320 h1        1 MOL      0.087881
     17 H6          3.7370   -2.8730    1.6850 hc        1 MOL      0.062517
     18 H7          3.6210   -1.5300    0.5010 hc        1 MOL      0.062517
     19 N2          1.1980   -4.2510   -1.1690 n         1 MOL     -0.551162
     20 C7         -0.2750   -4.3410   -1.3400 c3        1 MOL     -0.064992
     21 C8         -0.8360   -5.2070   -0.2160 c         1 MOL      0.522585
     22 O5         -0.2660   -6.2220    0.2490 o         1 MOL     -0.573714
     23 C9         -0.6770   -4.7310   -2.7960 c3        1 MOL      0.348567
     24 C10        -0.6470   -6.3290   -3.0490 c3        1 MOL     -0.037668
     25 C11         0.1610   -3.9690   -3.8850 c3        1 MOL     -0.276191
     26 C12        -1.1270   -6.7960   -4.4070 c3        1 MOL     -0.381731
     27 H8          1.7340   -4.6300   -1.9410 hn        1 MOL      0.227763
     28 H9         -0.7100   -3.3550   -1.1550 h1        1 MOL      0.080895
     29 H10        -1.6950   -4.4050   -2.9630 hc        1 MOL     -0.017515
     30 H11        -1.2400   -6.7890   -2.2560 hc        1 MOL      0.043875
     31 H12         0.3720   -6.6990   -2.9520 hc        1 MOL      0.043875
     32 H13         1.2240   -4.1640   -3.7840 hc        1 MOL      0.068586
     33 H14         0.0410   -4.2100   -4.9370 hc        1 MOL      0.068586
     34 H15         0.1380   -2.8900   -3.7500 hc        1 MOL      0.068586
     35 H16        -2.2090   -6.6450   -4.4560 hc        1 MOL      0.089113
     36 H17        -0.6520   -6.2370   -5.2190 hc        1 MOL      0.089113
     37 H18        -0.9640   -7.8740   -4.5050 hc        1 MOL      0.089113
     38 N3         -2.0730   -5.0010    0.2620 n         1 MOL     -0.465979
     39 C13        -3.1650   -4.2170   -0.2930 c3        1 MOL     -0.011703
     40 C14        -3.7690   -3.1430    0.6110 c         1 MOL      0.614898
     41 O6         -4.6290   -2.4390    0.0950 o         1 MOL     -0.508347
     42 C15        -4.3080   -5.1800   -0.7000 c3        1 MOL     -0.275140
     43 C16        -4.9600   -5.9440    0.4720 c         1 MOL      0.786262
     44 O7         -6.1380   -6.4000    0.4960 o         1 MOL     -0.677560
     45 O8         -4.2220   -6.1240    1.4380 o         1 MOL     -0.677560
     46 H19        -2.3880   -5.7840    0.8290 hn        1 MOL      0.315815
     47 H20        -2.8370   -3.6690   -1.1820 h1        1 MOL      0.023219
     48 H21        -3.9520   -5.9210   -1.4220 hc        1 MOL      0.042104
     49 H22        -5.0870   -4.5720   -1.1530 hc        1 MOL      0.042104
     50 N4         -3.1760   -3.0500    1.8200 n         1 MOL     -0.365890
     51 C17        -3.5930   -2.0000    2.7760 c3        1 MOL     -0.233076
     52 C18        -4.9420   -2.1950    3.3780 c         1 MOL      0.569378
     53 O9         -5.3370   -3.3480    3.7450 o         1 MOL     -0.506050
     54 H23        -2.4800   -3.7700    1.9700 hn        1 MOL      0.335871
     55 H24        -3.6410   -1.0190    2.2920 h1        1 MOL      0.106102
     56 H25        -2.8520   -2.0510    3.5800 h1        1 MOL      0.106102
     57 N5         -5.6960   -1.1150    3.4420 n         1 MOL     -0.502578
     58 C19        -7.1440   -1.0920    3.7300 c3        1 MOL      0.097770
     59 C20        -7.8980   -1.0250    2.3950 c         1 MOL      0.472778
     60 O10        -9.0290   -1.5720    2.3250 o         1 MOL     -0.583067
     61 C21        -7.5510    0.0190    4.7050 c3        1 MOL     -0.138773
     62 C22        -7.2810    1.4410    4.3590 c         1 MOL      0.670304
     63 O11        -7.2450    2.2180    5.3350 o         1 MOL     -0.696615
     64 O12        -7.2620    1.7910    3.1790 o         1 MOL     -0.696615
     65 H26        -5.2220   -0.2540    3.2000 hn        1 MOL      0.291787
     66 H27        -7.4350   -1.9980    4.2760 h1        1 MOL      0.074289
     67 H28        -7.0460   -0.1640    5.6530 hc        1 MOL      0.033498
     68 H29        -8.6120   -0.0570    4.9570 hc        1 MOL      0.033498
     69 N6         -7.2560   -0.5580    1.3160 n         1 MOL     -0.100720
     70 C23        -7.7120   -0.6810   -0.1360 c3        1 MOL     -0.374857
     71 C24        -7.7550    0.6750   -0.9150 c         1 MOL      0.549200
     72 O13        -8.0160    0.7330   -2.1060 o         1 MOL     -0.568494
     73 H30        -6.3220   -0.1900    1.4360 hn        1 MOL      0.157821
     74 H31        -8.7160   -1.0940   -0.0780 h1        1 MOL      0.166734
     75 H32        -7.0950   -1.4210   -0.6520 h1        1 MOL      0.166734
     76 N7         -7.6320    1.7730   -0.1810 n         1 MOL     -0.211104
     77 C25        -7.8130    3.1580   -0.7350 c3        1 MOL     -0.016486
     78 C26        -6.9170    3.5820   -1.9990 c         1 MOL      0.354537
     79 O14        -7.0820    4.6030   -2.6330 o         1 MOL     -0.514627
     80 C27        -9.3040    3.5860   -0.8980 c3        1 MOL      0.068590
     81 C28       -10.0870    3.8280    0.3800 c3        1 MOL     -0.034974
     82 C29       -10.7400    2.5850    0.9830 c         1 MOL      0.629342
     83 N8        -10.0250    1.8310    1.8040 n         1 MOL     -0.733855
     84 O15       -11.8900    2.2810    0.8130 o         1 MOL     -0.598541
     85 H33        -7.6490    1.7200    0.8260 hn        1 MOL      0.101850
     86 H34        -7.3490    3.6950    0.1010 h1        1 MOL      0.115179
     87 H35        -9.8370    2.9080   -1.5660 hc        1 MOL      0.019228
     88 H36        -9.3280    4.5700   -1.3750 hc        1 MOL      0.019228
     89 H37       -10.9000    4.5060    0.1210 hc        1 MOL     -0.013069
     90 H38        -9.4110    4.2660    1.1160 hc        1 MOL     -0.013069
     91 H39        -9.0860    2.0570    2.1050 hn        1 MOL      0.351045
     92 H40       -10.5400    1.1050    2.2800 hn        1 MOL      0.351045
     93 N9         -5.8590    2.8500   -2.3150 n         1 MOL     -0.135412
     94 C30        -4.7480    3.1580   -3.2560 c3        1 MOL     -0.135578
     95 C31        -3.3180    2.8530   -2.7880 c         1 MOL      0.733830
     96 O16        -2.4550    3.6710   -3.0060 o         1 MOL     -0.561638
     97 C32        -5.1420    2.4780   -4.5610 c3        1 MOL      0.276599
     98 C33        -4.4080    3.1110   -5.7700 c3        1 MOL     -0.453295
     99 C34        -4.8590    0.9350   -4.6470 c3        1 MOL     -0.453295
    100 H41        -5.6590    2.0580   -1.7160 hn        1 MOL      0.024128
    101 H42        -4.8170    4.2280   -3.4780 h1        1 MOL      0.108664
    102 H43        -6.1850    2.7360   -4.7750 hc        1 MOL      0.039374
    103 H44        -3.3570    2.8550   -5.7070 hc        1 MOL      0.106605
    104 H45        -4.7940    2.6830   -6.6940 hc        1 MOL      0.106605
    105 H46        -4.5800    4.1850   -5.8710 hc        1 MOL      0.106605
    106 H47        -5.1500    0.4290   -3.7220 hc        1 MOL      0.106605
    107 H48        -5.2580    0.5320   -5.5710 hc        1 MOL      0.106605
    108 H49        -3.7760    0.9430   -4.5490 hc        1 MOL      0.106605
    109 N10        -3.0690    1.8000   -2.0410 n         1 MOL     -0.715055
    110 C35        -1.7950    1.2660   -1.7160 c3        1 MOL      0.254823
    111 C36        -1.0150    1.9360   -0.6290 c         1 MOL      0.740685
    112 O17        -1.5210    2.4910    0.3390 o         1 MOL     -0.576782
    113 C37        -1.8790   -0.2500   -1.5470 c3        1 MOL     -0.347468
    114 C38        -2.3230   -0.9660   -2.8160 c         1 MOL      0.654754
    115 N11        -3.4120   -1.6970   -2.7280 n         1 MOL     -0.657062
    116 O18        -1.6240   -0.9210   -3.8070 o         1 MOL     -0.586091
    117 H50        -3.8570    1.2350   -1.7510 hn        1 MOL      0.430031
    118 H51        -1.2630    1.4050   -2.6610 h1        1 MOL      0.073114
    119 H52        -2.5820   -0.4570   -0.7350 hc        1 MOL      0.073656
    120 H53        -0.9570   -0.7740   -1.2990 hc        1 MOL      0.073656
    121 H54        -3.9490   -1.7860   -1.8820 hn        1 MOL      0.325054
    122 H55        -3.6220   -2.3610   -3.4670 hn        1 MOL      0.325054
    123 N12         0.3180    1.9010   -0.7460 n         1 MOL     -0.856353
    124 C39         1.1560    2.3440    0.3570 c3        1 MOL      0.572453
    125 C40         2.5260    2.7580   -0.0670 c         1 MOL      0.496181
    126 O19         3.1040    2.1420   -0.9610 o         1 MOL     -0.559667
    127 C41         1.2750    1.1940    1.3780 c3        1 MOL      0.000662
    128 C42         2.1500    1.4110    2.6200 ca        1 MOL     -0.106003
    129 C43         3.1460    0.5160    3.0740 ca        1 MOL     -0.058468
    130 C44         1.9270    2.5950    3.4160 ca        1 MOL     -0.058468
    131 C45         3.9730    0.8260    4.1680 ca        1 MOL     -0.336265
    132 C46         2.7610    2.8920    4.5100 ca        1 MOL     -0.336265
    133 C47         3.7730    2.0330    4.9020 ca        1 MOL      0.425306
    134 O20         4.4910    2.3650    5.9870 oh        1 MOL     -0.555221
    135 H56         0.7210    1.4770   -1.5640 hn        1 MOL      0.336543
    136 H57         0.7430    3.2690    0.7520 h1        1 MOL     -0.034623
    137 H58         1.5860    0.2760    0.8830 hc        1 MOL      0.025608
    138 H59         0.2630    1.0670    1.7670 hc        1 MOL      0.025608
    139 H60         3.2710   -0.4100    2.5160 ha        1 MOL      0.089419
    140 H61         1.0640    3.1830    3.1430 ha        1 MOL      0.089419
    141 H62         4.8110    0.1800    4.3640 ha        1 MOL      0.167296
    142 H63         2.6270    3.8310    5.0390 ha        1 MOL      0.167296
    143 H64         5.3910    2.0170    5.9840 ho        1 MOL      0.396869
    144 N13         3.2310    3.7180    0.6030 n         1 MOL     -0.606523
    145 C48         4.3850    4.4870    0.0660 c3        1 MOL      0.158282
    146 C49         5.5200    4.4950    1.1740 c         1 MOL      0.651419
    147 O21         5.4390    5.2340    2.1510 o         1 MOL     -0.558921
    148 C50         4.0080    5.9060   -0.3300 c3        1 MOL      0.058032
    149 C51         5.2250    6.5240   -1.0420 c3        1 MOL     -0.314442
    150 C52         5.0470    8.0340   -1.2960 c         1 MOL      0.705098
    151 O22         4.6340    8.5510   -2.3660 o         1 MOL     -0.738167
    152 O23         5.2300    8.7670   -0.2940 o         1 MOL     -0.738167
    153 H65         2.6570    4.3020    1.1960 hn        1 MOL      0.267271
    154 H66         4.7290    4.0050   -0.8470 h1        1 MOL      0.032249
    155 H67         3.8090    6.4910    0.5690 hc        1 MOL      0.020764
    156 H68         3.1600    5.9520   -1.0130 hc        1 MOL      0.020764
    157 H69         5.4690    5.9470   -1.9350 hc        1 MOL      0.055137
    158 H70         6.1260    6.3120   -0.4730 hc        1 MOL      0.055137
    159 N14         6.5670    3.6590    1.0800 n         1 MOL     -0.653190
    160 C53         6.5790    2.4820    0.1430 c3        1 MOL      0.135701
    161 C54         7.1010    3.0080   -1.1860 c         1 MOL      0.457630
    162 O24         7.8520    4.0040   -1.1540 o         1 MOL     -0.507343
    163 C55         7.3980    1.3220    0.7160 c3        1 MOL     -0.020352
    164 C56         6.9060    0.8730    2.1120 c3        1 MOL      0.036785
    165 C57         7.8680   -0.1830    2.7410 c         1 MOL      0.614091
    166 O25         7.9900   -0.0280    3.9940 o         1 MOL     -0.680621
    167 O26         8.3170   -1.0670    2.0210 o         1 MOL     -0.680621
    168 H71         7.1580    3.5610    1.8990 hn        1 MOL      0.359752
    169 H72         5.5580    2.1500   -0.0190 h1        1 MOL      0.053827
    170 H73         8.4310    1.6630    0.6360 hc        1 MOL     -0.045729
    171 H74         7.3960    0.4020    0.1300 hc        1 MOL     -0.045729
    172 H75         5.9190    0.4220    2.1380 hc        1 MOL     -0.003826
    173 H76         6.9360    1.7150    2.8060 hc        1 MOL     -0.003826
    174 N15         6.8040    2.3970   -2.3490 n         1 MOL     -0.291075
    175 C58         7.2890    2.7130   -3.7230 c3        1 MOL     -0.120945
    176 H77         6.4370    2.7920   -4.3990 h1        1 MOL      0.066758
    177 H78         7.8300    3.6590   -3.7100 h1        1 MOL      0.066758
    178 H79         7.9530    1.9200   -4.0660 h1        1 MOL      0.066758
    179 H80         6.0820    1.6870   -2.3360 hn        1 MOL      0.259917
    180 Ca1         8.5560   -2.8480    0.1720 Ca        1 MOL      1.754643
    181 O27        11.0550   -1.8880    0.3600 oh        1 MOL     -0.889371
    182 H81        11.2650   -1.1870    0.9780 ho        1 MOL      0.427370
    183 H82        11.6600   -1.7530   -0.3610 ho        1 MOL      0.427370
    184 O28         9.6280   -4.5240    2.2310 oh        1 MOL     -0.889371
    185 H83         9.5780   -5.4420    2.4730 ho        1 MOL      0.427370
    186 H84         9.9840   -4.0820    3.0080 ho        1 MOL      0.427370
    187 O29         8.6000   -1.6180   -2.2010 oh        1 MOL     -0.889371
    188 H85         7.9300   -1.7830   -2.8700 ho        1 MOL      0.427370
    189 H86         9.3670   -1.3260   -2.7080 ho        1 MOL      0.427370
    190 O30        10.0790   -4.6510   -0.9750 oh        1 MOL     -0.889371
    191 H87        10.5580   -5.1390   -0.3040 ho        1 MOL      0.427370
    192 H88        10.5690   -4.7980   -1.7740 ho        1 MOL      0.427370
@<TRIPOS>BOND
     1    1    2 1   
     2    1    4 1   
     3    1    5 1   
     4    1    6 1   
     5    2    3 2   
     6    2    7 1   
     7    7    8 1   
     8    7   15 1   
     9    8    9 1   
    10    8   11 1   
    11    8   16 1   
    12    9   10 2   
    13    9   19 1   
    14   11   12 1   
    15   11   17 1   
    16   11   18 1   
    17   12   13 1   
    18   12   14 1   
    19   19   20 1   
    20   19   27 1   
    21   20   21 1   
    22   20   23 1   
    23   20   28 1   
    24   21   22 2   
    25   21   38 1   
    26   23   24 1   
    27   23   25 1   
    28   23   29 1   
    29   24   26 1   
    30   24   30 1   
    31   24   31 1   
    32   25   32 1   
    33   25   33 1   
    34   25   34 1   
    35   26   35 1   
    36   26   36 1   
    37   26   37 1   
    38   38   39 1   
    39   38   46 1   
    40   39   40 1   
    41   39   42 1   
    42   39   47 1   
    43   40   41 2   
    44   40   50 1   
    45   42   43 1   
    46   42   48 1   
    47   42   49 1   
    48   43   44 1   
    49   43   45 1   
    50   50   51 1   
    51   50   54 1   
    52   51   52 1   
    53   51   55 1   
    54   51   56 1   
    55   52   53 2   
    56   52   57 1   
    57   57   58 1   
    58   57   65 1   
    59   58   59 1   
    60   58   61 1   
    61   58   66 1   
    62   59   60 2   
    63   59   69 1   
    64   61   62 1   
    65   61   67 1   
    66   61   68 1   
    67   62   63 1   
    68   62   64 1   
    69   69   70 1   
    70   69   73 1   
    71   70   71 1   
    72   70   74 1   
    73   70   75 1   
    74   71   72 2   
    75   71   76 1   
    76   76   77 1   
    77   76   85 1   
    78   77   78 1   
    79   77   80 1   
    80   77   86 1   
    81   78   79 2   
    82   78   93 1   
    83   80   81 1   
    84   80   87 1   
    85   80   88 1   
    86   81   82 1   
    87   81   89 1   
    88   81   90 1   
    89   82   83 1   
    90   82   84 2   
    91   83   91 1   
    92   83   92 1   
    93   93   94 1   
    94   93  100 1   
    95   94   95 1   
    96   94   97 1   
    97   94  101 1   
    98   95   96 2   
    99   95  109 1   
   100   97   98 1   
   101   97   99 1   
   102   97  102 1   
   103   98  103 1   
   104   98  104 1   
   105   98  105 1   
   106   99  106 1   
   107   99  107 1   
   108   99  108 1   
   109  109  110 1   
   110  109  117 1   
   111  110  111 1   
   112  110  113 1   
   113  110  118 1   
   114  111  112 2   
   115  111  123 1   
   116  113  114 1   
   117  113  119 1   
   118  113  120 1   
   119  114  115 1   
   120  114  116 2   
   121  115  121 1   
   122  115  122 1   
   123  123  124 1   
   124  123  135 1   
   125  124  125 1   
   126  124  127 1   
   127  124  136 1   
   128  125  126 2   
   129  125  144 1   
   130  127  128 1   
   131  127  137 1   
   132  127  138 1   
   133  128  129 ar  
   134  128  130 ar  
   135  129  131 ar  
   136  129  139 1   
   137  130  132 ar  
   138  130  140 1   
   139  131  133 ar  
   140  131  141 1   
   141  132  133 ar  
   142  132  142 1   
   143  133  134 1   
   144  134  143 1   
   145  144  145 1   
   146  144  153 1   
   147  145  146 1   
   148  145  148 1   
   149  145  154 1   
   150  146  147 2   
   151  146  159 1   
   152  148  149 1   
   153  148  155 1   
   154  148  156 1   
   155  149  150 1   
   156  149  157 1   
   157  149  158 1   
   158  150  151 1   
   159  150  152 1   
   160  159  160 1   
   161  159  168 1   
   162  160  161 1   
   163  160  163 1   
   164  160  169 1   
   165  161  162 2   
   166  161  174 1   
   167  163  164 1   
   168  163  170 1   
   169  163  171 1   
   170  164  165 1   
   171  164  172 1   
   172  164  173 1   
   173  165  166 1   
   174  165  167 1   
   175  174  175 1   
   176  174  179 1   
   177  175  176 1   
   178  175  177 1   
   179  175  178 1   
   180  181  182 1   
   181  181  183 1   
   182  184  185 1   
   183  184  186 1   
   184  187  188 1   
   185  187  189 1   
   186  190  191 1   
   187  190  192 1   
@<TRIPOS>SUBSTRUCTURE
     1 MOL         1 TEMP              0 ****  ****    0 ROOT
