@<TRIPOS>MOLECULE
MOL
  195   189     1     0     0
SMALL
resp


@<TRIPOS>ATOM
      1 C1         -6.6560   -3.2540    4.7680 c3        1 MOL     -0.230653
      2 C2         -5.8850   -2.5280    3.6190 c         1 MOL      0.641277
      3 O1         -5.3210   -3.1020    2.6330 o         1 MOL     -0.602078
      4 H1         -7.4670   -2.6170    5.1200 hc        1 MOL      0.067757
      5 H2         -7.0690   -4.1920    4.3940 hc        1 MOL      0.067757
      6 H3         -5.9740   -3.4600    5.5930 hc        1 MOL      0.067757
      7 N1         -5.8190   -1.2060    3.6460 n         1 MOL     -0.408706
      8 C3         -5.2800   -0.4200    2.4990 c3        1 MOL      0.234182
      9 C4         -3.8260   -0.5320    2.0950 c         1 MOL     -0.035798
     10 O2         -3.3460    0.1220    1.1800 o         1 MOL     -0.029481
     11 C5         -5.5580    1.0660    2.8340 c3        1 MOL     -0.011262
     12 C6         -6.9700    1.4590    3.2990 c         1 MOL      0.687587
     13 O3         -7.3620    1.0400    4.4340 o         1 MOL     -0.684043
     14 O4         -7.6360    2.2390    2.6390 o         1 MOL     -0.684043
     15 H4         -6.2370   -0.7150    4.4230 hn        1 MOL      0.189739
     16 H5         -5.8060   -0.6180    1.5610 h1        1 MOL      0.043631
     17 H6         -5.2470    1.6390    1.9560 hc        1 MOL     -0.045293
     18 H7         -4.9450    1.3880    3.6780 hc        1 MOL     -0.045293
     19 N2         -2.9780   -1.3500    2.8200 n         1 MOL     -0.272559
     20 C7         -1.5400   -1.4430    2.8240 c3        1 MOL      0.143899
     21 C8         -0.9390   -2.6850    2.1350 c         1 MOL      0.509853
     22 O5         -1.2050   -3.7630    2.5350 o         1 MOL     -0.521716
     23 C9         -1.0780   -1.2460    4.2100 c3        1 MOL     -0.167566
     24 C10        -1.3460    0.2040    4.6690 c3        1 MOL     -0.033764
     25 C11        -0.4940    0.5960    5.8520 c3        1 MOL     -0.037675
     26 C12        -0.8980    2.0270    6.2130 c3        1 MOL      0.079374
     27 N3         -0.7230    2.4760    7.6320 n4        1 MOL     -0.393179
     28 H8         -3.5540   -2.0360    3.2740 hn        1 MOL      0.239151
     29 H9         -1.1220   -0.5860    2.2920 h1        1 MOL     -0.068245
     30 H10        -0.0370   -1.5550    4.3390 hc        1 MOL      0.067340
     31 H11        -1.7130   -1.8640    4.8390 hc        1 MOL      0.067340
     32 H12        -2.3830    0.3650    4.9440 hc        1 MOL      0.054596
     33 H13        -1.0430    0.9180    3.9040 hc        1 MOL      0.054596
     34 H14         0.5640    0.5570    5.5810 hc        1 MOL      0.036587
     35 H15        -0.6060   -0.1060    6.6840 hc        1 MOL      0.036587
     36 H16        -1.9360    2.2490    5.9970 hx        1 MOL      0.090039
     37 H17        -0.2590    2.6940    5.6190 hx        1 MOL      0.090039
     38 H18         0.2350    2.7360    7.7940 hn        1 MOL      0.326303
     39 H19        -1.1260    3.3600    7.8990 hn        1 MOL      0.326303
     40 H20        -1.0060    1.8080    8.3350 hn        1 MOL      0.326303
     41 N4          0.0630   -2.5470    1.2860 n         1 MOL     -0.289316
     42 C13         0.7810   -1.4450    0.6080 c3        1 MOL     -0.343912
     43 C14         1.2620   -0.4030    1.6100 c         1 MOL      0.731153
     44 O6          0.8320    0.7510    1.5560 o         1 MOL     -0.635410
     45 C15         0.0340   -0.9920   -0.6840 c3        1 MOL     -0.068114
     46 C16         0.2250   -2.0280   -1.7660 c         1 MOL      0.488322
     47 O7          1.1180   -2.9060   -1.6850 o         1 MOL     -0.678678
     48 O8         -0.5530   -2.0660   -2.7080 o         1 MOL     -0.678678
     49 H21         0.3130   -3.4710    0.9650 hn        1 MOL      0.204170
     50 H22         1.7450   -1.7530    0.2160 h1        1 MOL      0.169635
     51 H23         0.3850   -0.0510   -1.1180 hc        1 MOL      0.128939
     52 H24        -0.9840   -0.6960   -0.4580 hc        1 MOL      0.128939
     53 N5          2.1310   -0.6320    2.5990 n         1 MOL     -0.395120
     54 C17         3.0720   -1.6640    2.5040 c3        1 MOL      0.071444
     55 C18         4.3610   -1.5170    3.2990 c         1 MOL      0.560005
     56 O9          4.3780   -0.6600    4.2140 o         1 MOL     -0.579091
     57 H25         2.3300    0.0980    3.2670 hn        1 MOL      0.271420
     58 H26         3.3130   -1.8630    1.4580 h1        1 MOL      0.031396
     59 H27         2.6250   -2.6140    2.7780 h1        1 MOL      0.031396
     60 N6          5.3940   -2.3260    3.1440 n         1 MOL     -0.480423
     61 C19         5.5490   -3.3540    2.0980 c3        1 MOL      0.054217
     62 C20         6.4990   -2.8140    1.0320 c         1 MOL      0.345685
     63 O10         7.4340   -2.0670    1.3530 o         1 MOL     -0.363871
     64 C21         6.1260   -4.6290    2.7860 c3        1 MOL     -0.161590
     65 C22         7.5370   -4.3790    3.2780 c         1 MOL      0.671374
     66 O11         7.8160   -3.9290    4.4300 o         1 MOL     -0.653516
     67 O12         8.4360   -4.5550    2.4240 o         1 MOL     -0.653516
     68 H28         6.2270   -1.8970    3.5180 hn        1 MOL      0.346423
     69 H29         4.5960   -3.6260    1.6560 h1        1 MOL      0.049596
     70 H30         6.1980   -5.4410    2.0670 hc        1 MOL      0.020484
     71 H31         5.5170   -4.9590    3.6380 hc        1 MOL      0.020484
     72 N7          6.4300   -3.3200   -0.2360 n         1 MOL     -0.304269
     73 C23         7.3470   -2.8270   -1.2910 c3        1 MOL     -0.195436
     74 C24         7.0660   -1.4470   -1.8030 c         1 MOL      0.520653
     75 O13         7.9890   -0.8120   -2.2720 o         1 MOL     -0.526666
     76 H32         5.7390   -4.0260   -0.4360 hn        1 MOL      0.242655
     77 H33         7.2580   -3.5110   -2.1320 h1        1 MOL      0.134334
     78 H34         8.4060   -2.8310   -1.0160 h1        1 MOL      0.134334
     79 N8          5.7530   -1.1200   -1.8790 n         1 MOL     -0.392692
     80 C25         5.2190    0.2280   -2.2090 c3        1 MOL     -0.000259
     81 C26         5.4720    1.2070   -1.1170 c         1 MOL      0.621152
     82 O14         5.3280    0.8420    0.0500 o         1 MOL     -0.561924
     83 C27         3.7200    0.1910   -2.5270 c3        1 MOL      0.421927
     84 C28         3.3680   -0.7210   -3.7490 c3        1 MOL     -0.627132
     85 O15         3.3370    1.4550   -2.8540 oh        1 MOL     -0.591285
     86 H35         5.1300   -1.8250   -1.5090 hn        1 MOL      0.209594
     87 H36         5.7340    0.6940   -3.0420 h1        1 MOL      0.066757
     88 H37         3.2200   -0.2340   -1.6620 h1        1 MOL      0.015106
     89 H38         2.4090    1.3570   -3.0680 ho        1 MOL      0.383491
     90 H39         3.8970   -0.3100   -4.6060 hc        1 MOL      0.154690
     91 H40         3.6510   -1.7510   -3.5440 hc        1 MOL      0.154690
     92 H41         2.3130   -0.5730   -3.9830 hc        1 MOL      0.154690
     93 N9          5.8000    2.4370   -1.4590 n         1 MOL     -0.439201
     94 C29         5.9270    3.5270   -0.4580 c3        1 MOL     -0.131925
     95 C30         4.7480    4.5140   -0.3360 c         1 MOL      0.374891
     96 O16         4.8530    5.5870    0.3010 o         1 MOL     -0.507775
     97 C31         7.2420    4.3180   -0.5990 c3        1 MOL      0.167186
     98 C32         7.3480    5.0050   -1.9520 c3        1 MOL      0.058335
     99 C33         8.3810    3.3300   -0.3570 c3        1 MOL     -0.065599
    100 C34         8.5600    5.9630   -2.1910 c3        1 MOL     -0.264359
    101 H42         6.0780    2.6560   -2.3970 hn        1 MOL      0.264202
    102 H43         6.0620    3.1330    0.5490 h1        1 MOL      0.165612
    103 H44         7.3270    5.0480    0.2100 hc        1 MOL      0.003035
    104 H45         6.4010    5.5070   -2.1510 hc        1 MOL      0.008293
    105 H46         7.4240    4.2720   -2.7500 hc        1 MOL      0.008293
    106 H47         8.2630    2.8040    0.5880 hc        1 MOL      0.022737
    107 H48         8.6550    2.6780   -1.1870 hc        1 MOL      0.022737
    108 H49         9.2920    3.9240   -0.2610 hc        1 MOL      0.022737
    109 H50         9.4590    5.3910   -1.9510 hc        1 MOL      0.063032
    110 H51         8.5230    6.1510   -3.2540 hc        1 MOL      0.063032
    111 H52         8.5230    6.8930   -1.6170 hc        1 MOL      0.063032
    112 N10         3.5650    4.0570   -0.8640 n         1 MOL     -0.105398
    113 C35         2.2420    4.6570   -0.5600 c3        1 MOL     -0.219614
    114 C36         1.2130    3.5450   -0.3880 c         1 MOL      0.647447
    115 O17         1.3850    2.3630   -0.8080 o         1 MOL     -0.492496
    116 C37         1.8320    5.6620   -1.6600 c3        1 MOL      0.337756
    117 C38         1.6760    5.0910   -3.0760 c3        1 MOL     -0.149251
    118 O18         2.7750    6.7450   -1.6800 oh        1 MOL     -0.565668
    119 H53         3.6080    3.1770   -1.3500 hn        1 MOL      0.110215
    120 H54         2.3070    5.1430    0.4200 h1        1 MOL      0.112078
    121 H55         0.8350    6.0900   -1.4980 h1        1 MOL     -0.024682
    122 H56         3.0930    6.7500   -0.7780 ho        1 MOL      0.344095
    123 H57         2.6260    4.6760   -3.3860 hc        1 MOL      0.047272
    124 H58         0.8730    4.3560   -3.0940 hc        1 MOL      0.047272
    125 H59         1.4890    5.8700   -3.8170 hc        1 MOL      0.047272
    126 N11         0.0130    4.0030    0.0840 n         1 MOL     -0.526791
    127 C39        -1.0930    3.0510    0.4190 c3        1 MOL      0.124542
    128 C40        -2.3190    3.2980   -0.4940 c         1 MOL      0.592723
    129 O19        -2.4880    4.3310   -1.2100 o         1 MOL     -0.598323
    130 C41        -1.5310    2.9800    1.9080 c3        1 MOL      0.136933
    131 C42        -2.3240    4.1570    2.4670 c3        1 MOL     -0.078966
    132 O20        -0.3880    2.9410    2.7200 oh        1 MOL     -0.624180
    133 H60        -0.2020    4.9630    0.3250 hn        1 MOL      0.296738
    134 H61        -0.7020    2.0790    0.1000 h1        1 MOL     -0.001810
    135 H62        -2.0970    2.0580    1.9840 h1        1 MOL      0.040881
    136 H63         0.1470    2.1630    2.5140 ho        1 MOL      0.423127
    137 H64        -1.8130    5.1100    2.3560 hc        1 MOL      0.031536
    138 H65        -3.2690    4.1990    1.9280 hc        1 MOL      0.031536
    139 H66        -2.4910    4.1140    3.5380 hc        1 MOL      0.031536
    140 N12        -3.3150    2.3610   -0.5150 n         1 MOL     -0.410673
    141 C43        -4.4630    2.4270   -1.4190 c3        1 MOL      0.000095
    142 C44        -5.0080    1.0190   -1.9240 c         1 MOL      0.490100
    143 O21        -5.6300    0.9680   -2.9480 o         1 MOL     -0.562666
    144 C45        -5.5440    3.1540   -0.6100 c3        1 MOL     -0.096287
    145 C46        -6.7200    3.5770   -1.4500 c3        1 MOL     -0.132211
    146 C47        -6.4360    4.5450   -2.5840 c3        1 MOL      0.061994
    147 C48        -7.6640    5.2660   -3.1570 c3        1 MOL     -0.002332
    148 N13        -7.3580    5.8720   -4.4340 n4        1 MOL     -0.153776
    149 H67        -3.1870    1.6150    0.1530 hn        1 MOL      0.082127
    150 H68        -4.1010    2.9390   -2.3070 h1        1 MOL      0.071153
    151 H69        -5.1010    4.1010   -0.3030 hc        1 MOL      0.077272
    152 H70        -5.8840    2.5050    0.1960 hc        1 MOL      0.077272
    153 H71        -7.3210    4.1490   -0.7320 hc        1 MOL      0.072031
    154 H72        -7.2100    2.6630   -1.7780 hc        1 MOL      0.072031
    155 H73        -6.0400    3.8770   -3.3550 hc        1 MOL      0.016705
    156 H74        -5.6790    5.3100   -2.4040 hc        1 MOL      0.016705
    157 H75        -7.9560    5.9920   -2.4010 hx        1 MOL      0.067151
    158 H76        -8.4280    4.5030   -3.2870 hx        1 MOL      0.067151
    159 H77        -6.9740    5.1980   -5.0750 hn        1 MOL      0.245263
    160 H78        -8.1440    6.3270   -4.8750 hn        1 MOL      0.245263
    161 H79        -6.5880    6.5280   -4.3430 hn        1 MOL      0.245263
    162 N14        -4.7430   -0.0440   -1.2370 n         1 MOL      0.098302
    163 C49        -5.0670   -1.3460   -1.6660 c3        1 MOL     -0.803699
    164 C50        -6.5730   -1.5910   -1.5140 c         1 MOL      0.787422
    165 O22        -7.1700   -1.0970   -0.5780 o         1 MOL     -0.538762
    166 C51        -4.3010   -2.3930   -0.8210 c3        1 MOL      0.515545
    167 C52        -4.4740   -3.8100   -1.3070 c3        1 MOL     -0.769652
    168 C53        -4.0620   -3.9570   -2.7700 c         1 MOL      0.937033
    169 O23        -4.9130   -3.6980   -3.6230 o         1 MOL     -0.782100
    170 O24        -2.9150   -4.4860   -2.9910 o         1 MOL     -0.782100
    171 H80        -4.1590    0.0320   -0.4130 hn        1 MOL      0.003544
    172 H81        -4.6780   -1.4300   -2.6790 h1        1 MOL      0.243684
    173 H82        -4.6040   -2.3070    0.2200 hc        1 MOL     -0.029547
    174 H83        -3.2400   -2.1160   -0.7900 hc        1 MOL     -0.029547
    175 H84        -5.4980   -4.1840   -1.2630 hc        1 MOL      0.171453
    176 H85        -3.8520   -4.4510   -0.6790 hc        1 MOL      0.171453
    177 N15        -7.0330   -2.3310   -2.5070 n         1 MOL     -0.554058
    178 C54        -8.4690   -2.6450   -2.6650 c3        1 MOL     -0.011451
    179 H86        -8.5770   -3.6390   -3.0980 h1        1 MOL      0.046273
    180 H87        -8.9570   -2.6190   -1.6900 h1        1 MOL      0.046273
    181 H88        -8.9320   -1.9100   -3.3230 h1        1 MOL      0.046273
    182 H89        -6.3560   -2.8080   -3.0690 hn        1 MOL      0.501430
    183 Ca1        -0.3940   -4.5910   -3.2230 Ca        1 MOL      1.730892
    184 O25         0.1430   -6.0970   -5.3150 oh        1 MOL     -0.838420
    185 H90         0.4850   -6.9920   -5.2780 ho        1 MOL      0.419551
    186 H91         0.6880   -5.6590   -5.9640 ho        1 MOL      0.419551
    187 O26        -0.7420   -3.2450   -5.7320 oh        1 MOL     -0.838420
    188 H92        -0.4400   -2.3730   -5.9880 ho        1 MOL      0.419551
    189 H93        -0.7610   -3.7350   -6.5580 ho        1 MOL      0.419551
    190 O27         1.9720   -3.8680   -4.7000 oh        1 MOL     -0.838420
    191 H94         2.1620   -3.2390   -5.3970 ho        1 MOL      0.419551
    192 H95         2.8330   -4.2320   -4.4670 ho        1 MOL      0.419551
    193 O28        -1.5350   -7.0030   -2.6110 oh        1 MOL     -0.838420
    194 H96        -1.6140   -7.9470   -2.4810 ho        1 MOL      0.419551
    195 H97        -2.4300   -6.6760   -2.5160 ho        1 MOL      0.419551
@<TRIPOS>BOND
     1    1    2 1   
     2    1    4 1   
     3    1    5 1   
     4    1    6 1   
     5    2    3 2   
     6    2    7 1   
     7    7    8 1   
     8    7   15 1   
     9    8    9 1   
    10    8   11 1   
    11    8   16 1   
    12    9   10 2   
    13    9   19 1   
    14   11   12 1   
    15   11   17 1   
    16   11   18 1   
    17   12   13 1   
    18   12   14 1   
    19   19   20 1   
    20   19   28 1   
    21   20   21 1   
    22   20   23 1   
    23   20   29 1   
    24   21   22 2   
    25   21   41 1   
    26   23   24 1   
    27   23   30 1   
    28   23   31 1   
    29   24   25 1   
    30   24   32 1   
    31   24   33 1   
    32   25   26 1   
    33   25   34 1   
    34   25   35 1   
    35   26   27 1   
    36   26   36 1   
    37   26   37 1   
    38   27   38 1   
    39   27   39 1   
    40   27   40 1   
    41   41   42 1   
    42   41   49 1   
    43   42   43 1   
    44   42   45 1   
    45   42   50 1   
    46   43   44 2   
    47   43   53 1   
    48   45   46 1   
    49   45   51 1   
    50   45   52 1   
    51   46   47 1   
    52   46   48 1   
    53   53   54 1   
    54   53   57 1   
    55   54   55 1   
    56   54   58 1   
    57   54   59 1   
    58   55   56 2   
    59   55   60 1   
    60   60   61 1   
    61   60   68 1   
    62   61   62 1   
    63   61   64 1   
    64   61   69 1   
    65   62   63 2   
    66   62   72 1   
    67   64   65 1   
    68   64   70 1   
    69   64   71 1   
    70   65   66 1   
    71   65   67 1   
    72   72   73 1   
    73   72   76 1   
    74   73   74 1   
    75   73   77 1   
    76   73   78 1   
    77   74   75 2   
    78   74   79 1   
    79   79   80 1   
    80   79   86 1   
    81   80   81 1   
    82   80   83 1   
    83   80   87 1   
    84   81   82 2   
    85   81   93 1   
    86   83   84 1   
    87   83   85 1   
    88   83   88 1   
    89   84   90 1   
    90   84   91 1   
    91   84   92 1   
    92   85   89 1   
    93   93   94 1   
    94   93  101 1   
    95   94   95 1   
    96   94   97 1   
    97   94  102 1   
    98   95   96 2   
    99   95  112 1   
   100   97   98 1   
   101   97   99 1   
   102   97  103 1   
   103   98  100 1   
   104   98  104 1   
   105   98  105 1   
   106   99  106 1   
   107   99  107 1   
   108   99  108 1   
   109  100  109 1   
   110  100  110 1   
   111  100  111 1   
   112  112  113 1   
   113  112  119 1   
   114  113  114 1   
   115  113  116 1   
   116  113  120 1   
   117  114  115 2   
   118  114  126 1   
   119  116  117 1   
   120  116  118 1   
   121  116  121 1   
   122  117  123 1   
   123  117  124 1   
   124  117  125 1   
   125  118  122 1   
   126  126  127 1   
   127  126  133 1   
   128  127  128 1   
   129  127  130 1   
   130  127  134 1   
   131  128  129 2   
   132  128  140 1   
   133  130  131 1   
   134  130  132 1   
   135  130  135 1   
   136  131  137 1   
   137  131  138 1   
   138  131  139 1   
   139  132  136 1   
   140  140  141 1   
   141  140  149 1   
   142  141  142 1   
   143  141  144 1   
   144  141  150 1   
   145  142  143 2   
   146  142  162 1   
   147  144  145 1   
   148  144  151 1   
   149  144  152 1   
   150  145  146 1   
   151  145  153 1   
   152  145  154 1   
   153  146  147 1   
   154  146  155 1   
   155  146  156 1   
   156  147  148 1   
   157  147  157 1   
   158  147  158 1   
   159  148  159 1   
   160  148  160 1   
   161  148  161 1   
   162  162  163 1   
   163  162  171 1   
   164  163  164 1   
   165  163  166 1   
   166  163  172 1   
   167  164  165 2   
   168  164  177 1   
   169  166  167 1   
   170  166  173 1   
   171  166  174 1   
   172  167  168 1   
   173  167  175 1   
   174  167  176 1   
   175  168  169 1   
   176  168  170 1   
   177  177  178 1   
   178  177  182 1   
   179  178  179 1   
   180  178  180 1   
   181  178  181 1   
   182  184  185 1   
   183  184  186 1   
   184  187  188 1   
   185  187  189 1   
   186  190  191 1   
   187  190  192 1   
   188  193  194 1   
   189  193  195 1   
@<TRIPOS>SUBSTRUCTURE
     1 MOL         1 TEMP              0 ****  ****    0 ROOT
