@<TRIPOS>MOLECULE
MOL
  195   189     1     0     0
SMALL
resp


@<TRIPOS>ATOM
      1 C1          3.8100   -1.5220   -3.2420 c3        1 MOL     -0.468784
      2 C2          3.0360   -2.1470   -2.0550 c         1 MOL      0.879049
      3 O1          2.2380   -1.4570   -1.3950 o         1 MOL     -0.512821
      4 H1          3.7180   -0.4370   -3.2040 hc        1 MOL      0.106735
      5 H2          4.8620   -1.7990   -3.1770 hc        1 MOL      0.106735
      6 H3          3.3950   -1.8890   -4.1810 hc        1 MOL      0.106735
      7 N1          3.2700   -3.3950   -1.7440 n         1 MOL     -0.688693
      8 C3          2.7160   -4.2370   -0.5870 c3        1 MOL     -0.212387
      9 C4          1.1810   -4.2960   -0.4890 c         1 MOL      0.697217
     10 O2          0.4630   -4.0990    0.5540 o         1 MOL     -0.534722
     11 C5          3.3260   -3.9860    0.8060 c3        1 MOL     -0.053486
     12 C6          4.8450   -3.9580    0.9080 c         1 MOL      0.741960
     13 O3          5.3690   -3.7370    2.0380 o         1 MOL     -0.748816
     14 O4          5.6060   -4.1400   -0.0720 o         1 MOL     -0.748816
     15 H4          3.6650   -3.9340   -2.5020 hn        1 MOL      0.323793
     16 H5          2.8830   -5.2860   -0.8070 h1        1 MOL      0.117306
     17 H6          3.0190   -4.7230    1.5460 hc        1 MOL      0.066906
     18 H7          2.9730   -3.0120    1.1590 hc        1 MOL      0.066906
     19 N2          0.6450   -4.5910   -1.7010 n         1 MOL     -0.496728
     20 C7         -0.7940   -4.7350   -1.8720 c3        1 MOL     -0.311687
     21 C8         -1.2790   -6.1600   -1.4950 c         1 MOL      0.665837
     22 O5         -0.4730   -7.1010   -1.4680 o         1 MOL     -0.617711
     23 C9         -1.1860   -4.3340   -3.3300 c3        1 MOL      0.091950
     24 C10        -0.5470   -5.1500   -4.4910 c3        1 MOL      0.092868
     25 C11        -1.1210   -2.8270   -3.5050 c3        1 MOL      0.060054
     26 C12        -1.3720   -5.0940   -5.7590 c3        1 MOL     -0.139954
     27 H8          1.2840   -4.7710   -2.4650 hn        1 MOL      0.307499
     28 H9         -1.3380   -4.0940   -1.1800 h1        1 MOL      0.272569
     29 H10        -2.2530   -4.5750   -3.3360 hc        1 MOL      0.014572
     30 H11        -0.4820   -6.1880   -4.1970 hc        1 MOL     -0.014009
     31 H12         0.4820   -4.8550   -4.7310 hc        1 MOL     -0.014009
     32 H13        -1.6470   -2.6030   -4.4330 hc        1 MOL     -0.019008
     33 H14        -1.6430   -2.2170   -2.7680 hc        1 MOL     -0.019008
     34 H15        -0.0840   -2.5120   -3.6040 hc        1 MOL     -0.019008
     35 H16        -2.4330   -5.1640   -5.5190 hc        1 MOL      0.021208
     36 H17        -1.2860   -4.0880   -6.1670 hc        1 MOL      0.021208
     37 H18        -1.0340   -5.8360   -6.4800 hc        1 MOL      0.021208
     38 N3         -2.5090   -6.4110   -1.1150 n         1 MOL     -0.483090
     39 C13        -3.5440   -5.4100   -0.5080 c3        1 MOL      0.040282
     40 C14        -4.3250   -6.1420    0.5430 c         1 MOL      0.555702
     41 O6         -4.8380   -7.2620    0.5050 o         1 MOL     -0.534298
     42 C15        -4.5200   -4.9080   -1.6790 c3        1 MOL     -0.184066
     43 C16        -5.9420   -4.5430   -1.3040 c         1 MOL      0.734456
     44 O7         -6.9160   -5.2660   -1.6830 o         1 MOL     -0.716779
     45 O8         -6.1240   -3.4870   -0.7020 o         1 MOL     -0.716779
     46 H19        -2.7300   -7.3570   -0.8490 hn        1 MOL      0.266476
     47 H20        -2.9100   -4.6390   -0.0860 h1        1 MOL      0.019337
     48 H21        -4.5230   -5.7130   -2.4130 hc        1 MOL      0.043526
     49 H22        -4.0640   -3.9840   -2.0420 hc        1 MOL      0.043526
     50 N4         -4.5670   -5.3190    1.5740 n         1 MOL     -0.335176
     51 C17        -5.5530   -5.6350    2.6170 c3        1 MOL     -0.327558
     52 C18        -6.3410   -4.4280    3.0850 c         1 MOL      0.747889
     53 O9         -6.8300   -4.4320    4.1820 o         1 MOL     -0.641170
     54 H23        -4.4030   -4.3250    1.4450 hn        1 MOL      0.275404
     55 H24        -5.0680   -5.9520    3.5350 h1        1 MOL      0.128149
     56 H25        -6.2630   -6.2990    2.1220 h1        1 MOL      0.128149
     57 N5         -6.4160   -3.4000    2.2530 n         1 MOL     -0.415713
     58 C19        -7.0400   -2.1510    2.6880 c3        1 MOL     -0.060337
     59 C20        -7.7460   -1.2410    1.6170 c         1 MOL      0.524079
     60 O10        -8.7430   -0.6840    1.9230 o         1 MOL     -0.582278
     61 C21        -5.8430   -1.2350    3.1560 c3        1 MOL     -0.171201
     62 C22        -4.7320   -0.9100    2.1230 c         1 MOL      0.692606
     63 O11        -4.7710    0.1760    1.4590 o         1 MOL     -0.693650
     64 O12        -3.8390   -1.8130    1.9880 o         1 MOL     -0.693650
     65 H26        -6.0590   -3.5400    1.3220 hn        1 MOL      0.240308
     66 H27        -7.7440   -2.3460    3.4990 h1        1 MOL      0.104452
     67 H28        -5.3260   -1.7540    3.9590 hc        1 MOL      0.035638
     68 H29        -6.2750   -0.3280    3.5660 hc        1 MOL      0.035638
     69 N6         -7.2220   -0.9600    0.4200 n         1 MOL     -0.142040
     70 C23        -7.8320   -0.1630   -0.6070 c3        1 MOL     -0.245865
     71 C24        -7.9670    1.3500   -0.4050 c         1 MOL      0.536873
     72 O13        -8.7320    2.0140   -1.1390 o         1 MOL     -0.576450
     73 H30        -6.2640   -1.2480    0.2450 hn        1 MOL      0.235365
     74 H31        -8.7950   -0.6190   -0.8310 h1        1 MOL      0.102210
     75 H32        -7.1910   -0.2620   -1.4890 h1        1 MOL      0.102210
     76 N7         -7.1120    1.8270    0.5150 n         1 MOL     -0.164604
     77 C25        -6.8400    3.2210    0.8850 c3        1 MOL     -0.119870
     78 C26        -6.3980    4.0480   -0.3660 c         1 MOL      0.577850
     79 O14        -6.7020    5.2590   -0.4150 o         1 MOL     -0.535579
     80 C27        -7.9660    3.8450    1.6800 c3        1 MOL      0.215198
     81 C28        -8.4030    3.2470    3.0250 c3        1 MOL     -0.349005
     82 C29        -7.3830    3.6260    4.1550 c         1 MOL      0.616654
     83 N8         -7.5580    3.2180    5.3910 n         1 MOL     -0.714516
     84 O15        -6.3460    4.3010    4.0070 o         1 MOL     -0.510915
     85 H33        -6.6680    1.1180    1.0790 hn        1 MOL      0.212686
     86 H34        -5.9620    3.2390    1.5420 h1        1 MOL      0.089315
     87 H35        -8.7830    3.8110    0.9550 hc        1 MOL     -0.021369
     88 H36        -7.7610    4.9040    1.8750 hc        1 MOL     -0.021369
     89 H37        -8.4690    2.1590    3.0130 hc        1 MOL      0.084018
     90 H38        -9.3940    3.5910    3.3080 hc        1 MOL      0.084018
     91 H39        -8.4900    2.8930    5.6140 hn        1 MOL      0.319973
     92 H40        -6.9690    3.5220    6.1500 hn        1 MOL      0.319973
     93 N9         -5.6730    3.4760   -1.3320 n         1 MOL     -0.470342
     94 C30        -5.2460    4.2320   -2.6080 c3        1 MOL     -0.182263
     95 C31        -3.7570    4.1280   -2.9680 c         1 MOL      0.683208
     96 O16        -3.3400    4.8260   -3.8370 o         1 MOL     -0.598139
     97 C32        -6.1710    3.7640   -3.7800 c3        1 MOL      0.184159
     98 C33        -6.0410    2.3040   -3.8290 c3        1 MOL     -0.275044
     99 C34        -7.6000    4.2790   -3.6400 c3        1 MOL     -0.275044
    100 H41        -5.4970    2.4820   -1.2570 hn        1 MOL      0.256385
    101 H42        -5.4420    5.2870   -2.3900 h1        1 MOL      0.140743
    102 H43        -5.8800    4.1450   -4.7560 hc        1 MOL      0.012145
    103 H44        -6.6770    1.8290   -4.5730 hc        1 MOL      0.069229
    104 H45        -5.0400    1.9600   -4.0690 hc        1 MOL      0.069229
    105 H46        -6.3370    1.8430   -2.8840 hc        1 MOL      0.069229
    106 H47        -7.6320    5.3660   -3.5030 hc        1 MOL      0.069229
    107 H48        -8.0180    4.0990   -4.6280 hc        1 MOL      0.069229
    108 H49        -8.1130    3.8410   -2.7810 hc        1 MOL      0.069229
    109 N10        -3.0780    3.2650   -2.2260 n         1 MOL     -0.530195
    110 C35        -1.6610    3.0570   -2.3830 c3        1 MOL      0.416671
    111 C36        -0.8410    3.1790   -1.0540 c         1 MOL      0.320675
    112 O17        -1.3800    3.0840    0.0330 o         1 MOL     -0.487135
    113 C37        -1.4870    1.6480   -2.9720 c3        1 MOL     -0.241695
    114 C38        -0.0980    1.0470   -2.8320 c         1 MOL      0.493162
    115 N11         0.0290   -0.0400   -2.0800 n         1 MOL     -0.590578
    116 O18         0.9010    1.5650   -3.3830 o         1 MOL     -0.578852
    117 H50        -3.5780    2.6540   -1.5980 hn        1 MOL      0.279415
    118 H51        -1.2950    3.8430   -3.0390 h1        1 MOL      0.010487
    119 H52        -1.6970    1.7880   -4.0350 hc        1 MOL      0.067393
    120 H53        -2.2470    0.9730   -2.5820 hc        1 MOL      0.067393
    121 H54        -0.8040   -0.3230   -1.5800 hn        1 MOL      0.311927
    122 H55         0.9270   -0.4960   -1.9570 hn        1 MOL      0.311927
    123 N12         0.4680    3.3640   -1.2160 n         1 MOL     -0.425838
    124 C39         1.3550    3.5620   -0.0870 c3        1 MOL      0.272807
    125 C40         2.5810    4.3930   -0.4860 c         1 MOL      0.358660
    126 O19         2.9780    4.3850   -1.6560 o         1 MOL     -0.487713
    127 C41         1.7570    2.1110    0.2470 c3        1 MOL      0.125156
    128 C42         2.0940    1.9690    1.7040 ca        1 MOL     -0.083990
    129 C43         3.4070    1.6720    2.0650 ca        1 MOL     -0.089386
    130 C44         1.0990    2.2450    2.6570 ca        1 MOL     -0.089386
    131 C45         3.7410    1.6850    3.4140 ca        1 MOL     -0.268961
    132 C46         1.4470    2.1840    4.0240 ca        1 MOL     -0.268961
    133 C47         2.7430    1.8200    4.4320 ca        1 MOL      0.297177
    134 O20         3.0110    1.6640    5.7380 oh        1 MOL     -0.466824
    135 H56         0.7580    3.5650   -2.1600 hn        1 MOL      0.248217
    136 H57         0.9770    4.0680    0.8080 h1        1 MOL      0.018464
    137 H58         2.5840    1.7440   -0.3660 hc        1 MOL      0.009164
    138 H59         1.0470    1.3160    0.0430 hc        1 MOL      0.009164
    139 H60         4.1870    1.2780    1.4310 ha        1 MOL      0.127669
    140 H61         0.0760    2.4740    2.3580 ha        1 MOL      0.127669
    141 H62         4.7550    1.4060    3.6800 ha        1 MOL      0.141654
    142 H63         0.7060    2.1850    4.8090 ha        1 MOL      0.141654
    143 H64         3.9050    1.3150    5.7920 ho        1 MOL      0.344157
    144 N13         3.2970    4.9580    0.5460 n         1 MOL     -0.478711
    145 C48         4.6890    5.3370    0.4120 c3        1 MOL      0.154998
    146 C49         5.7450    4.4300    1.2180 c         1 MOL      0.354840
    147 O21         6.0010    4.6640    2.4170 o         1 MOL     -0.511383
    148 C50         4.8480    6.7830    1.0450 c3        1 MOL      0.062369
    149 C51         3.8100    7.8230    0.4940 c3        1 MOL     -0.216310
    150 C52         4.0560    9.1670    1.2200 c         1 MOL      0.634284
    151 O22         4.7230   10.0680    0.5880 o         1 MOL     -0.674314
    152 O23         3.7390    9.2260    2.4540 o         1 MOL     -0.674314
    153 H65         2.8690    5.0980    1.4470 hn        1 MOL      0.321360
    154 H66         4.9840    5.4960   -0.6220 h1        1 MOL      0.091922
    155 H67         5.9120    7.0450    1.0130 hc        1 MOL      0.033610
    156 H68         4.5820    6.6190    2.0940 hc        1 MOL      0.033610
    157 H69         2.7750    7.6380    0.7490 hc        1 MOL      0.026453
    158 H70         3.8460    7.9580   -0.5820 hc        1 MOL      0.026453
    159 N14         6.3990    3.4180    0.5790 n         1 MOL     -0.296809
    160 C53         6.3700    2.9970   -0.8940 c3        1 MOL     -0.169810
    161 C54         6.7250    4.1310   -1.8950 c         1 MOL      0.414570
    162 O24         7.6070    4.9690   -1.6390 o         1 MOL     -0.513944
    163 C55         7.3240    1.7930   -1.1440 c3        1 MOL     -0.117843
    164 C56         7.0040    0.5640   -0.2850 c3        1 MOL      0.011557
    165 C57         7.9390   -0.6390   -0.3090 c         1 MOL      0.635724
    166 O25         7.4510   -1.6620    0.2860 o         1 MOL     -0.712883
    167 O26         9.1280   -0.6390   -0.7970 o         1 MOL     -0.712883
    168 H71         6.7550    2.6870    1.1830 hn        1 MOL      0.235277
    169 H72         5.4030    2.5620   -1.1540 h1        1 MOL      0.135567
    170 H73         8.2910    2.1940   -0.8320 hc        1 MOL      0.061344
    171 H74         7.3490    1.4320   -2.1720 hc        1 MOL      0.061344
    172 H75         5.9680    0.2520   -0.4270 hc        1 MOL      0.014693
    173 H76         7.1330    0.8410    0.7600 hc        1 MOL      0.014693
    174 N15         6.0540    4.1680   -3.0090 n         1 MOL     -0.199176
    175 C58         6.1310    5.1760   -4.1470 c3        1 MOL     -0.342527
    176 H77         7.1580    5.2400   -4.5060 h1        1 MOL      0.140791
    177 H78         5.4810    4.8560   -4.9620 h1        1 MOL      0.140791
    178 H79         5.8100    6.1550   -3.7890 h1        1 MOL      0.140791
    179 H80         5.3780    3.4160   -3.0870 hn        1 MOL      0.234207
    180 Ca1         7.8520   -4.1710    0.9340 Ca        1 MOL      1.674799
    181 O27         7.7300   -4.9630    3.7520 oh        1 MOL     -0.806011
    182 H81         8.3270   -5.5520    4.2280 ho        1 MOL      0.389528
    183 H82         6.9800   -4.8540    4.3460 ho        1 MOL      0.389528
    184 O28         9.2590   -2.7100    2.6740 oh        1 MOL     -0.806011
    185 H83         9.7400   -1.9310    2.4040 ho        1 MOL      0.389528
    186 H84         9.6750   -2.9880    3.4890 ho        1 MOL      0.389528
    187 O29        10.4240   -4.1210   -0.2230 oh        1 MOL     -0.806011
    188 H85        11.2170   -3.7910    0.2010 ho        1 MOL      0.389528
    189 H86        10.6810   -4.2950   -1.1260 ho        1 MOL      0.389528
    190 O30         6.5910   -6.5550    1.3120 oh        1 MOL     -0.806011
    191 H87         5.6270   -6.5920    1.3480 ho        1 MOL      0.389528
    192 H88         6.8640   -7.4690    1.2230 ho        1 MOL      0.389528
    193 O31         9.4960   -6.2630    1.2710 oh        1 MOL     -0.806011
    194 H89         9.3930   -7.1120    1.6910 ho        1 MOL      0.389528
    195 H90        10.2780   -6.3560    0.7270 ho        1 MOL      0.389528
@<TRIPOS>BOND
     1    1    2 1   
     2    1    4 1   
     3    1    5 1   
     4    1    6 1   
     5    2    3 2   
     6    2    7 1   
     7    7    8 1   
     8    7   15 1   
     9    8    9 1   
    10    8   11 1   
    11    8   16 1   
    12    9   10 2   
    13    9   19 1   
    14   11   12 1   
    15   11   17 1   
    16   11   18 1   
    17   12   13 1   
    18   12   14 1   
    19   19   20 1   
    20   19   27 1   
    21   20   21 1   
    22   20   23 1   
    23   20   28 1   
    24   21   22 2   
    25   21   38 1   
    26   23   24 1   
    27   23   25 1   
    28   23   29 1   
    29   24   26 1   
    30   24   30 1   
    31   24   31 1   
    32   25   32 1   
    33   25   33 1   
    34   25   34 1   
    35   26   35 1   
    36   26   36 1   
    37   26   37 1   
    38   38   39 1   
    39   38   46 1   
    40   39   40 1   
    41   39   42 1   
    42   39   47 1   
    43   40   41 2   
    44   40   50 1   
    45   42   43 1   
    46   42   48 1   
    47   42   49 1   
    48   43   44 1   
    49   43   45 1   
    50   50   51 1   
    51   50   54 1   
    52   51   52 1   
    53   51   55 1   
    54   51   56 1   
    55   52   53 2   
    56   52   57 1   
    57   57   58 1   
    58   57   65 1   
    59   58   59 1   
    60   58   61 1   
    61   58   66 1   
    62   59   60 2   
    63   59   69 1   
    64   61   62 1   
    65   61   67 1   
    66   61   68 1   
    67   62   63 1   
    68   62   64 1   
    69   69   70 1   
    70   69   73 1   
    71   70   71 1   
    72   70   74 1   
    73   70   75 1   
    74   71   72 2   
    75   71   76 1   
    76   76   77 1   
    77   76   85 1   
    78   77   78 1   
    79   77   80 1   
    80   77   86 1   
    81   78   79 2   
    82   78   93 1   
    83   80   81 1   
    84   80   87 1   
    85   80   88 1   
    86   81   82 1   
    87   81   89 1   
    88   81   90 1   
    89   82   83 1   
    90   82   84 2   
    91   83   91 1   
    92   83   92 1   
    93   93   94 1   
    94   93  100 1   
    95   94   95 1   
    96   94   97 1   
    97   94  101 1   
    98   95   96 2   
    99   95  109 1   
   100   97   98 1   
   101   97   99 1   
   102   97  102 1   
   103   98  103 1   
   104   98  104 1   
   105   98  105 1   
   106   99  106 1   
   107   99  107 1   
   108   99  108 1   
   109  109  110 1   
   110  109  117 1   
   111  110  111 1   
   112  110  113 1   
   113  110  118 1   
   114  111  112 2   
   115  111  123 1   
   116  113  114 1   
   117  113  119 1   
   118  113  120 1   
   119  114  115 1   
   120  114  116 2   
   121  115  121 1   
   122  115  122 1   
   123  123  124 1   
   124  123  135 1   
   125  124  125 1   
   126  124  127 1   
   127  124  136 1   
   128  125  126 2   
   129  125  144 1   
   130  127  128 1   
   131  127  137 1   
   132  127  138 1   
   133  128  129 ar  
   134  128  130 ar  
   135  129  131 ar  
   136  129  139 1   
   137  130  132 ar  
   138  130  140 1   
   139  131  133 ar  
   140  131  141 1   
   141  132  133 ar  
   142  132  142 1   
   143  133  134 1   
   144  134  143 1   
   145  144  145 1   
   146  144  153 1   
   147  145  146 1   
   148  145  148 1   
   149  145  154 1   
   150  146  147 2   
   151  146  159 1   
   152  148  149 1   
   153  148  155 1   
   154  148  156 1   
   155  149  150 1   
   156  149  157 1   
   157  149  158 1   
   158  150  151 1   
   159  150  152 1   
   160  159  160 1   
   161  159  168 1   
   162  160  161 1   
   163  160  163 1   
   164  160  169 1   
   165  161  162 2   
   166  161  174 1   
   167  163  164 1   
   168  163  170 1   
   169  163  171 1   
   170  164  165 1   
   171  164  172 1   
   172  164  173 1   
   173  165  166 1   
   174  165  167 1   
   175  174  175 1   
   176  174  179 1   
   177  175  176 1   
   178  175  177 1   
   179  175  178 1   
   180  181  182 1   
   181  181  183 1   
   182  184  185 1   
   183  184  186 1   
   184  187  188 1   
   185  187  189 1   
   186  190  191 1   
   187  190  192 1   
   188  193  194 1   
   189  193  195 1   
@<TRIPOS>SUBSTRUCTURE
     1 MOL         1 TEMP              0 ****  ****    0 ROOT
