@<TRIPOS>MOLECULE
MOL
  178   175     1     0     0
SMALL
resp


@<TRIPOS>ATOM
      1 C1          2.0140   -1.3800    5.7130 c3        1 MOL     -0.243906
      2 C2          3.1220   -0.8720    4.7330 c         1 MOL      0.570214
      3 O1          3.1900    0.2740    4.2690 o         1 MOL     -0.545678
      4 H1          1.2370   -1.8940    5.1460 hc        1 MOL      0.059271
      5 H2          2.4540   -2.0700    6.4330 hc        1 MOL      0.059271
      6 H3          1.5780   -0.5320    6.2400 hc        1 MOL      0.059271
      7 N1          4.1130   -1.7550    4.5840 n         1 MOL     -0.470917
      8 C3          5.3560   -1.4090    3.8680 c3        1 MOL      0.191736
      9 C4          5.4290   -2.0700    2.4740 c         1 MOL      0.376838
     10 O2          6.3600   -1.7660    1.7770 o         1 MOL     -0.459313
     11 C5          6.5140   -1.9010    4.8140 c3        1 MOL     -0.196629
     12 C6          7.9410   -1.6530    4.2200 c         1 MOL      0.730723
     13 O3          8.5210   -0.6050    4.6250 o         1 MOL     -0.719749
     14 O4          8.5150   -2.4680    3.4940 o         1 MOL     -0.719749
     15 H4          4.0560   -2.6650    5.0210 hn        1 MOL      0.279557
     16 H5          5.4580   -0.3280    3.7440 h1        1 MOL      0.080913
     17 H6          6.3760   -2.9760    4.9390 hc        1 MOL     -0.001104
     18 H7          6.4170   -1.3980    5.7820 hc        1 MOL     -0.001104
     19 N2          4.4840   -2.9730    2.1620 n         1 MOL     -0.400904
     20 C7          4.4200   -3.8040    1.0140 c3        1 MOL      0.315224
     21 C8          4.2560   -3.0260   -0.3610 c         1 MOL      0.152054
     22 O5          3.1980   -2.7900   -0.9000 o         1 MOL     -0.530514
     23 C9          5.6880   -4.7270    0.9980 c3        1 MOL     -0.360295
     24 H8          3.9380   -3.2490    2.9690 hn        1 MOL      0.228557
     25 H9          3.5500   -4.4530    1.1110 h1        1 MOL      0.063931
     26 H10         5.6990   -5.3540    1.8890 hc        1 MOL      0.098387
     27 H11         5.5720   -5.4500    0.1900 hc        1 MOL      0.098387
     28 H12         6.6350   -4.2500    0.7280 hc        1 MOL      0.098387
     29 N3          5.3500   -2.3990   -0.7920 n         1 MOL      0.044815
     30 C10         5.4890   -1.7580   -2.1300 c3        1 MOL     -0.417056
     31 C11         6.1120   -0.2990   -2.1180 c         1 MOL      0.628846
     32 O6          6.4140    0.3010   -3.1600 o         1 MOL     -0.557065
     33 C12         6.3410   -2.7420   -2.9310 c3        1 MOL     -0.102819
     34 C13         6.0820   -4.2370   -2.9320 c         1 MOL      0.659875
     35 O7          4.9130   -4.6790   -2.8210 o         1 MOL     -0.680613
     36 O8          7.0470   -4.9940   -3.0420 o         1 MOL     -0.680613
     37 H13         6.1590   -2.5140   -0.1940 hn        1 MOL      0.198176
     38 H14         4.4930   -1.6970   -2.5630 h1        1 MOL      0.219454
     39 H15         7.3250   -2.5750   -2.4760 hc        1 MOL      0.042672
     40 H16         6.5180   -2.4370   -3.9650 hc        1 MOL      0.042672
     41 N4          6.2380    0.3380   -0.9510 n         1 MOL     -0.282628
     42 C14         6.5300    1.7610   -0.8360 c3        1 MOL     -0.112243
     43 C15         5.5420    2.6640   -1.6020 c         1 MOL      0.523331
     44 O9          5.9160    3.7430   -2.0990 o         1 MOL     -0.570035
     45 H17         5.9990   -0.1420   -0.0950 hn        1 MOL      0.218369
     46 H18         7.5580    1.9330   -1.1230 h1        1 MOL      0.086324
     47 H19         6.5090    1.9720    0.2390 h1        1 MOL      0.086324
     48 N5          4.2830    2.2160   -1.6590 n         1 MOL     -0.112505
     49 C16         3.1090    2.9070   -2.3000 c3        1 MOL     -0.445780
     50 C17         2.7760    4.1950   -1.5900 c         1 MOL      0.638673
     51 O10         2.5330    4.2100   -0.4030 o         1 MOL     -0.526034
     52 C18         1.8690    1.8720   -2.3960 c3        1 MOL     -0.189272
     53 C19         2.2200    0.6220   -3.2050 c         1 MOL      0.521406
     54 N6          2.4680    0.8180   -4.4970 n         1 MOL     -0.687269
     55 O11         2.1530   -0.4810   -2.7560 o         1 MOL     -0.507487
     56 H20         4.1750    1.3980   -1.0790 hn        1 MOL      0.205178
     57 H21         3.3380    3.1670   -3.3260 h1        1 MOL      0.143294
     58 H22         0.9420    2.2800   -2.8020 hc        1 MOL      0.151132
     59 H23         1.6650    1.4530   -1.4090 hc        1 MOL      0.151132
     60 H24         2.3030    1.7660   -4.7950 hn        1 MOL      0.333010
     61 H25         2.4540    0.0400   -5.1340 hn        1 MOL      0.333010
     62 N7          2.7840    5.2650   -2.3600 n         1 MOL     -0.213110
     63 C20         2.3960    6.6030   -1.8890 c3        1 MOL     -0.477176
     64 C21         0.9100    6.7630   -1.6370 c         1 MOL      0.676186
     65 O12         0.0490    6.1250   -2.2670 o         1 MOL     -0.567534
     66 H26         3.0360    5.1650   -3.3330 hn        1 MOL      0.262966
     67 H27         2.6400    7.2130   -2.7510 h1        1 MOL      0.176344
     68 H28         2.8980    6.9120   -0.9740 h1        1 MOL      0.176344
     69 N8          0.5070    7.4780   -0.6240 n         1 MOL     -0.433466
     70 C22        -0.8180    7.9690   -0.4090 c3        1 MOL     -0.215517
     71 C23        -1.7380    6.9310    0.1770 c         1 MOL      0.497217
     72 O13        -2.8690    7.2550    0.4030 o         1 MOL     -0.591571
     73 C24        -0.8750    9.1840    0.5650 c3        1 MOL      0.461858
     74 C25        -0.2190    9.0280    1.9280 c3        1 MOL     -0.423698
     75 O14        -0.2790   10.1600   -0.3120 oh        1 MOL     -0.639399
     76 H29         1.2410    7.8920   -0.0710 hn        1 MOL      0.255914
     77 H30        -1.2700    8.2760   -1.3520 h1        1 MOL      0.161657
     78 H31        -1.9180    9.4650    0.6400 h1        1 MOL      0.052664
     79 H32         0.6690    9.9620   -0.3130 ho        1 MOL      0.362692
     80 H33         0.7850    8.6010    1.8810 hc        1 MOL      0.108056
     81 H34        -0.1760   10.0740    2.2380 hc        1 MOL      0.108056
     82 H35        -0.9230    8.5270    2.5920 hc        1 MOL      0.108056
     83 N9         -1.3040    5.7210    0.4170 n         1 MOL     -0.096787
     84 C26        -2.1300    4.6230    0.9440 c3        1 MOL     -0.015224
     85 C27        -1.8930    3.3260    0.1240 c         1 MOL      0.282234
     86 O15        -1.0580    3.3510   -0.7470 o         1 MOL     -0.381628
     87 C28        -1.9030    4.4270    2.4760 c3        1 MOL     -0.064766
     88 C29        -0.4210    3.8780    2.7020 c3        1 MOL      0.022064
     89 C30        -2.0710    5.7570    3.2880 c3        1 MOL     -0.072743
     90 C31        -0.1160    3.5330    4.0910 c3        1 MOL     -0.370436
     91 H36        -0.3430    5.4170    0.2800 hn        1 MOL      0.153867
     92 H37        -3.1860    4.9080    0.8550 h1        1 MOL      0.069778
     93 H38        -2.5870    3.6170    2.7450 hc        1 MOL      0.032534
     94 H39         0.2730    4.6030    2.2780 hc        1 MOL      0.078679
     95 H40        -0.3360    2.8730    2.2710 hc        1 MOL      0.078679
     96 H41        -1.9910    5.5340    4.3540 hc        1 MOL      0.022173
     97 H42        -1.3500    6.5420    3.0620 hc        1 MOL      0.022173
     98 H43        -3.0310    6.2470    3.1460 hc        1 MOL      0.022173
     99 H44         0.0430    4.4870    4.6040 hc        1 MOL      0.095019
    100 H45        -0.8990    2.8780    4.4650 hc        1 MOL      0.095019
    101 H46         0.7860    2.9180    4.1350 hc        1 MOL      0.095019
    102 N10        -2.6270    2.2750    0.3990 n         1 MOL     -0.321399
    103 C32        -2.3390    1.0180   -0.3230 c3        1 MOL      0.069497
    104 C33        -3.5450    0.0670   -0.4180 c         1 MOL      0.498364
    105 O16        -3.4980   -1.1200   -0.3290 o         1 MOL     -0.412091
    106 C34        -1.0410    0.3920    0.1970 c3        1 MOL     -0.149012
    107 C35        -0.4770   -0.7890   -0.6000 c         1 MOL      0.446439
    108 O17         0.6150   -1.2210   -0.2260 o         1 MOL     -0.630805
    109 O18        -0.9160   -1.1450   -1.7270 o         1 MOL     -0.630805
    110 H47        -3.2740    2.3540    1.1700 hn        1 MOL      0.237681
    111 H48        -2.1100    1.3230   -1.3400 h1        1 MOL      0.052211
    112 H49        -1.1720   -0.0040    1.2050 hc        1 MOL      0.085431
    113 H50        -0.2380    1.1310    0.1390 hc        1 MOL      0.085431
    114 N11        -4.7140    0.6920   -0.6260 n         1 MOL     -0.444543
    115 C36        -5.9650   -0.0410   -0.8800 c3        1 MOL      0.175787
    116 C37        -6.1990   -1.2130    0.0620 c         1 MOL      0.328570
    117 O19        -6.1020   -1.0020    1.2630 o         1 MOL     -0.533762
    118 C38        -7.2480    0.9240   -0.7080 c3        1 MOL     -0.371223
    119 C39        -8.5430    0.1530   -0.8650 ca        1 MOL      0.080932
    120 C40        -9.0190   -0.2000   -2.1570 ca        1 MOL     -0.144593
    121 C41        -9.3660   -0.1310    0.2790 ca        1 MOL     -0.144593
    122 C42       -10.2220   -0.9690   -2.3000 ca        1 MOL     -0.175197
    123 C43       -10.5350   -0.9840    0.1130 ca        1 MOL     -0.175197
    124 C44       -10.9830   -1.3370   -1.1630 ca        1 MOL     -0.068144
    125 H51        -4.7590    1.6870   -0.7550 hn        1 MOL      0.255959
    126 H52        -6.0230   -0.4310   -1.8900 h1        1 MOL      0.035633
    127 H53        -7.1640    1.7430   -1.4210 hc        1 MOL      0.143678
    128 H54        -7.2830    1.3570    0.2950 hc        1 MOL      0.143678
    129 H55        -8.5090    0.1280   -3.0490 ha        1 MOL      0.137010
    130 H56        -9.1640    0.3540    1.2300 ha        1 MOL      0.137010
    131 H57       -10.4320   -1.3320   -3.2960 ha        1 MOL      0.123108
    132 H58       -11.1360   -1.3200    0.9460 ha        1 MOL      0.123108
    133 H59       -11.8910   -1.9160   -1.2310 ha        1 MOL      0.105221
    134 N12        -6.5390   -2.4140   -0.4440 n         1 MOL     -0.027958
    135 C45        -6.9860   -3.4840    0.4040 c3        1 MOL      0.176041
    136 C46        -5.8190   -4.1020    1.2080 c         1 MOL      0.073261
    137 O20        -6.1430   -5.0170    1.9510 o         1 MOL     -0.510732
    138 C47        -7.5090   -4.5980   -0.4720 c3        1 MOL     -0.117438
    139 C48        -7.9040   -3.8380   -1.7660 c3        1 MOL      0.028454
    140 C49        -6.8430   -2.7680   -1.8540 c3        1 MOL      0.018293
    141 H60        -7.7500   -3.1350    1.1140 h1        1 MOL      0.081184
    142 H61        -6.8220   -5.4300   -0.6520 hc        1 MOL      0.058402
    143 H62        -8.4480   -5.0020   -0.0790 hc        1 MOL      0.058402
    144 H63        -7.8950   -4.4600   -2.6590 hc        1 MOL     -0.009061
    145 H64        -8.9120   -3.4440   -1.6030 hc        1 MOL     -0.009061
    146 H65        -5.9550   -3.2600   -2.2540 h1        1 MOL      0.032212
    147 H66        -7.1060   -1.9020   -2.4660 h1        1 MOL      0.032212
    148 N13        -4.6060   -3.5810    1.2270 n         1 MOL      0.262644
    149 C50        -3.5740   -3.9580    2.1820 c3        1 MOL     -0.156783
    150 C51        -3.5470   -2.9430    3.3420 c         1 MOL      0.438096
    151 O21        -3.1340   -3.2980    4.4240 o         1 MOL     -0.541836
    152 C52        -2.2250   -3.9840    1.4480 c3        1 MOL      0.156176
    153 C53        -1.9830   -4.9580    0.2930 c3        1 MOL     -0.139304
    154 C54        -0.8740   -4.4990   -0.4780 c         1 MOL      0.800807
    155 O22        -1.0180   -4.3500   -1.7330 o         1 MOL     -0.799635
    156 O23         0.2550   -4.2120   -0.0310 o         1 MOL     -0.799635
    157 H67        -4.4150   -2.7420    0.6860 hn        1 MOL     -0.107698
    158 H68        -3.7630   -4.9820    2.5010 h1        1 MOL      0.090310
    159 H69        -1.4260   -4.2070    2.1620 hc        1 MOL      0.000136
    160 H70        -2.0650   -3.0020    0.9970 hc        1 MOL      0.000136
    161 H71        -2.8650   -5.0650   -0.3290 hc        1 MOL      0.002857
    162 H72        -1.8170   -5.9360    0.7580 hc        1 MOL      0.002857
    163 N14        -4.1050   -1.7890    3.0650 n         1 MOL     -0.149509
    164 C55        -4.2090   -0.7160    4.0600 c3        1 MOL     -0.304815
    165 H73        -3.2280   -0.2650    4.2110 h1        1 MOL      0.116005
    166 H74        -4.9060    0.0440    3.7060 h1        1 MOL      0.116005
    167 H75        -4.5690   -1.1280    5.0030 h1        1 MOL      0.116005
    168 H76        -4.4260   -1.6540    2.1100 hn        1 MOL      0.231029
    169 Ca1         1.0220   -2.8360   -2.2290 Ca        1 MOL      1.784394
    170 O24         2.1880   -5.4840   -1.8870 oh        1 MOL     -0.880820
    171 H77         2.2250   -5.9740   -1.0650 ho        1 MOL      0.415521
    172 H78         3.1100   -5.3700   -2.1300 ho        1 MOL      0.415521
    173 O25        -0.1040   -2.2640   -4.6670 oh        1 MOL     -0.880820
    174 H79        -0.8950   -1.9440   -5.0980 ho        1 MOL      0.415521
    175 H80         0.6060   -2.0480   -5.2660 ho        1 MOL      0.415521
    176 O26         2.8360   -3.5630   -4.1120 oh        1 MOL     -0.880820
    177 H81         3.4650   -4.2050   -3.8030 ho        1 MOL      0.415521
    178 H82         2.9270   -3.5750   -5.0610 ho        1 MOL      0.415521
@<TRIPOS>BOND
     1    1    2 1   
     2    1    4 1   
     3    1    5 1   
     4    1    6 1   
     5    2    3 2   
     6    2    7 1   
     7    7    8 1   
     8    7   15 1   
     9    8    9 1   
    10    8   11 1   
    11    8   16 1   
    12    9   10 2   
    13    9   19 1   
    14   11   12 1   
    15   11   17 1   
    16   11   18 1   
    17   12   13 1   
    18   12   14 1   
    19   19   20 1   
    20   19   24 1   
    21   20   21 1   
    22   20   23 1   
    23   20   25 1   
    24   21   22 2   
    25   21   29 1   
    26   23   26 1   
    27   23   27 1   
    28   23   28 1   
    29   29   30 1   
    30   29   37 1   
    31   30   31 1   
    32   30   33 1   
    33   30   38 1   
    34   31   32 2   
    35   31   41 1   
    36   33   34 1   
    37   33   39 1   
    38   33   40 1   
    39   34   35 1   
    40   34   36 1   
    41   41   42 1   
    42   41   45 1   
    43   42   43 1   
    44   42   46 1   
    45   42   47 1   
    46   43   44 2   
    47   43   48 1   
    48   48   49 1   
    49   48   56 1   
    50   49   50 1   
    51   49   52 1   
    52   49   57 1   
    53   50   51 2   
    54   50   62 1   
    55   52   53 1   
    56   52   58 1   
    57   52   59 1   
    58   53   54 1   
    59   53   55 2   
    60   54   60 1   
    61   54   61 1   
    62   62   63 1   
    63   62   66 1   
    64   63   64 1   
    65   63   67 1   
    66   63   68 1   
    67   64   65 2   
    68   64   69 1   
    69   69   70 1   
    70   69   76 1   
    71   70   71 1   
    72   70   73 1   
    73   70   77 1   
    74   71   72 2   
    75   71   83 1   
    76   73   74 1   
    77   73   75 1   
    78   73   78 1   
    79   74   80 1   
    80   74   81 1   
    81   74   82 1   
    82   75   79 1   
    83   83   84 1   
    84   83   91 1   
    85   84   85 1   
    86   84   87 1   
    87   84   92 1   
    88   85   86 2   
    89   85  102 1   
    90   87   88 1   
    91   87   89 1   
    92   87   93 1   
    93   88   90 1   
    94   88   94 1   
    95   88   95 1   
    96   89   96 1   
    97   89   97 1   
    98   89   98 1   
    99   90   99 1   
   100   90  100 1   
   101   90  101 1   
   102  102  103 1   
   103  102  110 1   
   104  103  104 1   
   105  103  106 1   
   106  103  111 1   
   107  104  105 2   
   108  104  114 1   
   109  106  107 1   
   110  106  112 1   
   111  106  113 1   
   112  107  108 1   
   113  107  109 1   
   114  114  115 1   
   115  114  125 1   
   116  115  116 1   
   117  115  118 1   
   118  115  126 1   
   119  116  117 2   
   120  116  134 1   
   121  118  119 1   
   122  118  127 1   
   123  118  128 1   
   124  119  120 ar  
   125  119  121 ar  
   126  120  122 ar  
   127  120  129 1   
   128  121  123 ar  
   129  121  130 1   
   130  122  124 ar  
   131  122  131 1   
   132  123  124 ar  
   133  123  132 1   
   134  124  133 1   
   135  134  135 1   
   136  134  140 1   
   137  135  136 1   
   138  135  138 1   
   139  135  141 1   
   140  136  137 2   
   141  136  148 1   
   142  138  139 1   
   143  138  142 1   
   144  138  143 1   
   145  139  140 1   
   146  139  144 1   
   147  139  145 1   
   148  140  146 1   
   149  140  147 1   
   150  148  149 1   
   151  148  157 1   
   152  149  150 1   
   153  149  152 1   
   154  149  158 1   
   155  150  151 2   
   156  150  163 1   
   157  152  153 1   
   158  152  159 1   
   159  152  160 1   
   160  153  154 1   
   161  153  161 1   
   162  153  162 1   
   163  154  155 1   
   164  154  156 1   
   165  163  164 1   
   166  163  168 1   
   167  164  165 1   
   168  164  166 1   
   169  164  167 1   
   170  170  171 1   
   171  170  172 1   
   172  173  174 1   
   173  173  175 1   
   174  176  177 1   
   175  176  178 1   
@<TRIPOS>SUBSTRUCTURE
     1 MOL         1 TEMP              0 ****  ****    0 ROOT
