@<TRIPOS>MOLECULE
MOL
  195   189     1     0     0
SMALL
resp


@<TRIPOS>ATOM
      1 C1          1.7710    3.0900    3.5220 c3        1 MOL     -0.184175
      2 C2          0.9410    3.2980    2.2710 c         1 MOL      0.599791
      3 O1          0.2310    2.3950    1.8150 o         1 MOL     -0.476611
      4 H1          1.1140    3.0660    4.3920 hc        1 MOL      0.027744
      5 H2          2.3100    2.1460    3.4480 hc        1 MOL      0.027744
      6 H3          2.4830    3.9090    3.6270 hc        1 MOL      0.027744
      7 N1          1.0690    4.4660    1.6310 n         1 MOL     -0.305626
      8 C3          0.3240    4.8670    0.4350 c3        1 MOL     -0.114302
      9 C4         -1.2600    4.6360    0.5340 c         1 MOL      0.765336
     10 O2         -1.9320    4.1540   -0.3580 o         1 MOL     -0.517464
     11 C5          0.9590    4.2130   -0.7990 c3        1 MOL     -0.628895
     12 C6          2.4630    4.3710   -0.9500 c         1 MOL      0.694276
     13 O3          2.9840    5.5100   -1.0930 o         1 MOL     -0.674424
     14 O4          3.2080    3.3420   -0.8780 o         1 MOL     -0.674424
     15 H4          1.7500    5.1360    1.9290 hn        1 MOL      0.194201
     16 H5          0.5070    5.9440    0.4600 h1        1 MOL      0.122963
     17 H6          0.5950    4.8260   -1.6320 hc        1 MOL      0.228791
     18 H7          0.7120    3.1560   -0.8780 hc        1 MOL      0.228791
     19 N2         -1.8800    4.9860    1.7150 n         1 MOL     -0.617029
     20 C7         -3.3610    5.0350    1.7830 c3        1 MOL     -0.046208
     21 C8         -3.8930    6.0210    0.7980 c         1 MOL      0.394654
     22 O5         -3.2930    7.1020    0.5390 o         1 MOL     -0.588544
     23 C9         -3.8400    5.3420    3.2340 c3        1 MOL      0.206667
     24 C10        -3.5880    6.7960    3.6580 c3        1 MOL      0.212936
     25 C11        -3.3180    4.3560    4.2700 c3        1 MOL     -0.361350
     26 C12        -4.0520    7.2940    5.0120 c3        1 MOL     -0.437142
     27 H8         -1.4360    5.3850    2.5230 hn        1 MOL      0.269527
     28 H9         -3.7010    4.0460    1.4980 h1        1 MOL      0.116928
     29 H10        -4.9190    5.1970    3.2790 hc        1 MOL      0.072836
     30 H11        -4.0030    7.5020    2.9340 hc        1 MOL     -0.018693
     31 H12        -2.5080    6.9050    3.5890 hc        1 MOL     -0.018693
     32 H13        -2.6420    4.7400    5.0390 hc        1 MOL      0.080692
     33 H14        -4.2290    4.1510    4.8330 hc        1 MOL      0.080692
     34 H15        -2.9540    3.4270    3.8360 hc        1 MOL      0.080692
     35 H16        -3.3830    6.7960    5.7070 hc        1 MOL      0.092772
     36 H17        -3.9420    8.3760    4.9080 hc        1 MOL      0.092772
     37 H18        -5.1050    7.0330    5.1680 hc        1 MOL      0.092772
     38 N3         -5.1140    5.8920    0.2960 n         1 MOL     -0.336937
     39 C13        -6.1140    4.8880    0.4650 c3        1 MOL     -0.085233
     40 C14        -5.6750    3.6340   -0.2300 c         1 MOL      1.049483
     41 O6         -5.7790    2.5300    0.2970 o         1 MOL     -0.662439
     42 C15        -7.4770    5.4480   -0.0630 c3        1 MOL     -0.040236
     43 C16        -8.6460    4.4490    0.1510 c         1 MOL      0.530549
     44 O7         -9.2450    4.1270   -0.8690 o         1 MOL     -0.644111
     45 O8         -8.6480    3.7950    1.2010 o         1 MOL     -0.644111
     46 H19        -5.3150    6.7500   -0.2020 hn        1 MOL      0.251701
     47 H20        -6.1800    4.5900    1.5110 h1        1 MOL     -0.038970
     48 H21        -7.3730    5.5980   -1.1460 hc        1 MOL     -0.011623
     49 H22        -7.7530    6.4310    0.3230 hc        1 MOL     -0.011623
     50 N4         -5.1030    3.7900   -1.4340 n         1 MOL     -0.644166
     51 C17        -4.6210    2.7480   -2.2960 c3        1 MOL      0.030886
     52 C18        -5.6390    1.8770   -2.9810 c         1 MOL      0.393822
     53 O9         -6.7840    2.2560   -3.3170 o         1 MOL     -0.492563
     54 H23        -4.8310    4.7530   -1.5610 hn        1 MOL      0.304889
     55 H24        -3.9280    2.2060   -1.6590 h1        1 MOL      0.077535
     56 H25        -3.9230    3.1370   -3.0340 h1        1 MOL      0.077535
     57 N5         -5.2870    0.6260   -3.1040 n         1 MOL     -0.412733
     58 C19        -6.0940   -0.5560   -3.4220 c3        1 MOL      0.214339
     59 C20        -6.8620   -1.1090   -2.1890 c         1 MOL      0.407621
     60 O10        -7.8330   -1.7860   -2.2870 o         1 MOL     -0.587009
     61 C21        -5.2410   -1.7220   -3.9520 c3        1 MOL     -0.227191
     62 C22        -3.9880   -2.0200   -3.1490 c         1 MOL      0.809997
     63 O11        -2.8910   -1.9010   -3.7890 o         1 MOL     -0.725238
     64 O12        -3.9960   -2.3560   -1.9720 o         1 MOL     -0.725238
     65 H26        -4.3450    0.3900   -2.8530 hn        1 MOL      0.234914
     66 H27        -6.8950   -0.3730   -4.1410 h1        1 MOL      0.045085
     67 H28        -4.9690   -1.4550   -4.9800 hc        1 MOL      0.012621
     68 H29        -5.8550   -2.6190   -4.0160 hc        1 MOL      0.012621
     69 N6         -6.4200   -0.8050   -0.9860 n         1 MOL     -0.005925
     70 C23        -6.8810   -1.2200    0.3340 c3        1 MOL     -0.253486
     71 C24        -6.7220   -2.7360    0.6130 c         1 MOL      0.459008
     72 O13        -7.1580   -3.2490    1.5840 o         1 MOL     -0.574671
     73 H30        -5.6530   -0.1480   -1.0230 hn        1 MOL      0.147670
     74 H31        -7.9370   -1.0010    0.4790 h1        1 MOL      0.140510
     75 H32        -6.4400   -0.6010    1.1170 h1        1 MOL      0.140510
     76 N7         -6.0500   -3.5040   -0.2680 n         1 MOL     -0.022935
     77 C25        -5.5480   -4.8950   -0.1970 c3        1 MOL      0.302818
     78 C26        -4.8180   -5.3390    1.0220 c         1 MOL      0.357065
     79 O14        -4.8070   -6.5500    1.3310 o         1 MOL     -0.507104
     80 C27        -6.5920   -5.9160   -0.6270 c3        1 MOL     -0.213979
     81 C28        -7.1140   -5.5040   -2.0140 c3        1 MOL     -0.064710
     82 C29        -7.6350   -6.6600   -2.8360 c         1 MOL      0.678743
     83 N8         -8.2410   -6.3670   -3.9370 n         1 MOL     -0.805803
     84 O15        -7.5270   -7.8170   -2.5650 o         1 MOL     -0.577316
     85 H33        -5.5990   -2.8840   -0.9290 hn        1 MOL     -0.020369
     86 H34        -4.8180   -4.8500   -1.0090 h1        1 MOL      0.040301
     87 H35        -7.4460   -5.8980    0.0530 hc        1 MOL      0.053716
     88 H36        -6.1270   -6.8980   -0.7810 hc        1 MOL      0.053716
     89 H37        -6.3700   -4.9530   -2.5870 hc        1 MOL      0.033266
     90 H38        -7.9390   -4.8090   -1.8780 hc        1 MOL      0.033266
     91 H39        -8.2740   -5.4080   -4.2570 hn        1 MOL      0.339671
     92 H40        -8.3530   -7.0900   -4.6390 hn        1 MOL      0.339671
     93 N9         -4.0450   -4.4410    1.5960 n         1 MOL     -0.421637
     94 C30        -3.3410   -4.6520    2.9060 c3        1 MOL     -0.051182
     95 C31        -1.8330   -4.4560    2.8860 c         1 MOL      0.701803
     96 O16        -1.1900   -4.8350    3.8610 o         1 MOL     -0.605665
     97 C32        -4.0900   -3.8690    4.0430 c3        1 MOL      0.371724
     98 C33        -4.2830   -2.3500    3.8610 c3        1 MOL     -0.398741
     99 C34        -5.4980   -4.4820    4.2620 c3        1 MOL     -0.398741
    100 H41        -4.0550   -3.5700    1.0930 hn        1 MOL      0.251121
    101 H42        -3.4660   -5.6710    3.2550 h1        1 MOL      0.069176
    102 H43        -3.5020   -4.0540    4.9430 hc        1 MOL     -0.076480
    103 H44        -3.2580   -1.9780    3.8850 hc        1 MOL      0.093122
    104 H45        -4.8360   -2.1020    2.9480 hc        1 MOL      0.093122
    105 H46        -4.7740   -2.0330    4.7720 hc        1 MOL      0.093122
    106 H47        -6.1660   -4.3150    3.4140 hc        1 MOL      0.093122
    107 H48        -5.4540   -5.5570    4.3900 hc        1 MOL      0.093122
    108 H49        -5.9740   -4.1120    5.1610 hc        1 MOL      0.093122
    109 N10        -1.3470   -3.8170    1.8700 n         1 MOL     -0.582911
    110 C35         0.0160   -3.3030    1.8460 c3        1 MOL      0.202218
    111 C36         0.7380   -3.6870    0.4850 c         1 MOL      0.490728
    112 O17         0.3030   -4.4520   -0.3640 o         1 MOL     -0.503853
    113 C37        -0.2300   -1.7680    1.9560 c3        1 MOL     -0.127522
    114 C38         0.9910   -0.8630    2.3900 c         1 MOL      0.522883
    115 N11         1.0570   -0.4760    3.6230 n         1 MOL     -0.776680
    116 O18         1.8300   -0.5510    1.5600 o         1 MOL     -0.463803
    117 H50        -1.8650   -3.5230    1.0680 hn        1 MOL      0.303524
    118 H51         0.4970   -3.7510    2.7200 h1        1 MOL      0.025149
    119 H52        -1.0220   -1.5390    2.6760 hc        1 MOL      0.067766
    120 H53        -0.4640   -1.4790    0.9270 hc        1 MOL      0.067766
    121 H54         0.3030   -0.7770    4.2210 hn        1 MOL      0.367547
    122 H55         1.9330   -0.0800    3.9480 hn        1 MOL      0.367547
    123 N12         2.0040   -3.2560    0.3110 n         1 MOL     -0.271875
    124 C39         3.0100   -3.8500   -0.5500 c3        1 MOL     -0.007999
    125 C40         4.4280   -3.5070   -0.0590 c         1 MOL      0.483612
    126 O19         4.5810   -2.5680    0.7470 o         1 MOL     -0.541527
    127 C41         2.8260   -3.3920   -1.9810 c3        1 MOL      0.096580
    128 C42         3.0310   -1.9530   -2.2770 ca        1 MOL      0.082993
    129 C43         2.3290   -0.9210   -1.6570 ca        1 MOL     -0.180136
    130 C44         3.9100   -1.5940   -3.3400 ca        1 MOL     -0.180136
    131 C45         2.5370    0.4550   -1.9910 ca        1 MOL     -0.160478
    132 C46         4.1600   -0.2750   -3.6800 ca        1 MOL     -0.160478
    133 C47         3.5740    0.7520   -2.9060 ca        1 MOL      0.097449
    134 O20         3.7450    2.0620   -3.1830 oh        1 MOL     -0.428774
    135 H56         2.4080   -2.6970    1.0470 hn        1 MOL      0.180810
    136 H57         2.9060   -4.9290   -0.6160 h1        1 MOL      0.048988
    137 H58         1.8150   -3.6830   -2.2510 hc        1 MOL     -0.027579
    138 H59         3.5390   -3.9600   -2.5750 hc        1 MOL     -0.027579
    139 H60         1.5430   -1.2160   -0.9750 ha        1 MOL      0.118675
    140 H61         4.4440   -2.3200   -3.9200 ha        1 MOL      0.118675
    141 H62         2.0820    1.2860   -1.4770 ha        1 MOL      0.122208
    142 H63         4.9200   -0.0120   -4.3990 ha        1 MOL      0.122208
    143 H64         3.3470    2.5900   -2.4800 ho        1 MOL      0.411201
    144 N13         5.4060   -4.2570   -0.5930 n         1 MOL     -0.397128
    145 C48         6.7930   -4.1920   -0.1660 c3        1 MOL      0.247178
    146 C49         7.6890   -3.4250   -1.1420 c         1 MOL      0.308003
    147 O21         8.1240   -4.0630   -2.1050 o         1 MOL     -0.563807
    148 C50         7.3470   -5.6070    0.0230 c3        1 MOL     -0.241205
    149 C51         6.6510   -6.2000    1.2710 c3        1 MOL     -0.089310
    150 C52         7.3530   -7.4230    1.8070 c         1 MOL      0.752088
    151 O22         8.0600   -7.3580    2.8230 o         1 MOL     -0.696314
    152 O23         7.2300   -8.5590    1.2570 o         1 MOL     -0.696314
    153 H65         5.2570   -4.9750   -1.2880 hn        1 MOL      0.333401
    154 H66         6.8120   -3.6540    0.7880 h1        1 MOL      0.069847
    155 H67         8.4300   -5.5630    0.1930 hc        1 MOL      0.079700
    156 H68         7.0670   -6.2480   -0.8170 hc        1 MOL      0.079700
    157 H69         5.6080   -6.4180    1.0800 hc        1 MOL     -0.018427
    158 H70         6.4650   -5.4770    2.0600 hc        1 MOL     -0.018427
    159 N14         8.0600   -2.1970   -1.0190 n         1 MOL     -0.222585
    160 C53         7.5800   -1.1680   -0.0170 c3        1 MOL     -0.138764
    161 C54         8.3520   -1.3350    1.3060 c         1 MOL      0.520118
    162 O24         9.2870   -2.0810    1.3700 o         1 MOL     -0.504865
    163 C55         7.6990    0.2690   -0.5510 c3        1 MOL      0.187307
    164 C56         6.7260    0.5040   -1.7310 c3        1 MOL      0.024312
    165 C57         7.0220    1.8610   -2.4250 c         1 MOL      0.561975
    166 O25         6.6390    2.8920   -1.8420 o         1 MOL     -0.641922
    167 O26         7.8060    1.8380   -3.4000 o         1 MOL     -0.641922
    168 H71         8.8760   -1.9760   -1.5630 hn        1 MOL      0.272623
    169 H72         6.5190   -1.3390    0.1310 h1        1 MOL      0.134385
    170 H73         8.7170    0.5410   -0.8320 hc        1 MOL     -0.076893
    171 H74         7.2910    0.9910    0.1630 hc        1 MOL     -0.076893
    172 H75         5.6970    0.4520   -1.3960 hc        1 MOL     -0.042532
    173 H76         6.9230   -0.3070   -2.4360 hc        1 MOL     -0.042532
    174 N15         7.8870   -0.6710    2.3740 n         1 MOL     -0.445768
    175 C58         8.1690   -0.9890    3.7820 c3        1 MOL     -0.133394
    176 H77         7.2350   -1.0110    4.3420 h1        1 MOL      0.086704
    177 H78         8.6540   -1.9630    3.8450 h1        1 MOL      0.086704
    178 H79         8.8260   -0.2280    4.2020 h1        1 MOL      0.086704
    179 H80         7.0400   -0.1660    2.1630 hn        1 MOL      0.307547
    180 Ca1         5.4500    4.8530   -0.8020 Ca        1 MOL      1.712703
    181 O27         7.7240    5.5810    0.7420 oh        1 MOL     -0.889535
    182 H81         7.4970    6.3230    1.3090 ho        1 MOL      0.414282
    183 H82         8.4530    5.1590    1.1940 ho        1 MOL      0.414282
    184 O28         4.7110    5.2750   -3.3400 oh        1 MOL     -0.889535
    185 O29         7.4010    6.4030   -2.3360 oh        1 MOL     -0.889535
    186 H83         4.9140    6.1950   -3.4790 ho        1 MOL      0.414282
    187 H84         8.0810    6.9820   -1.9790 ho        1 MOL      0.414282
    188 H85         3.8900    5.1310   -3.8110 ho        1 MOL      0.414282
    189 H86         7.7640    6.0890   -3.1640 ho        1 MOL      0.414282
    190 O30         5.4240    7.6970   -1.0110 oh        1 MOL     -0.889535
    191 H87         6.3230    7.8400   -1.3090 ho        1 MOL      0.414282
    192 H88         4.9750    8.5250   -1.2010 ho        1 MOL      0.414282
    193 O31         5.8150    3.1540    1.3300 oh        1 MOL     -0.889535
    194 H89         5.0880    2.5660    1.5450 ho        1 MOL      0.414282
    195 H90         6.4350    3.0450    2.0480 ho        1 MOL      0.414282
@<TRIPOS>BOND
     1    1    2 1   
     2    1    4 1   
     3    1    5 1   
     4    1    6 1   
     5    2    3 2   
     6    2    7 1   
     7    7    8 1   
     8    7   15 1   
     9    8    9 1   
    10    8   11 1   
    11    8   16 1   
    12    9   10 2   
    13    9   19 1   
    14   11   12 1   
    15   11   17 1   
    16   11   18 1   
    17   12   13 1   
    18   12   14 1   
    19   19   20 1   
    20   19   27 1   
    21   20   21 1   
    22   20   23 1   
    23   20   28 1   
    24   21   22 2   
    25   21   38 1   
    26   23   24 1   
    27   23   25 1   
    28   23   29 1   
    29   24   26 1   
    30   24   30 1   
    31   24   31 1   
    32   25   32 1   
    33   25   33 1   
    34   25   34 1   
    35   26   35 1   
    36   26   36 1   
    37   26   37 1   
    38   38   39 1   
    39   38   46 1   
    40   39   40 1   
    41   39   42 1   
    42   39   47 1   
    43   40   41 2   
    44   40   50 1   
    45   42   43 1   
    46   42   48 1   
    47   42   49 1   
    48   43   44 1   
    49   43   45 1   
    50   50   51 1   
    51   50   54 1   
    52   51   52 1   
    53   51   55 1   
    54   51   56 1   
    55   52   53 2   
    56   52   57 1   
    57   57   58 1   
    58   57   65 1   
    59   58   59 1   
    60   58   61 1   
    61   58   66 1   
    62   59   60 2   
    63   59   69 1   
    64   61   62 1   
    65   61   67 1   
    66   61   68 1   
    67   62   63 1   
    68   62   64 1   
    69   69   70 1   
    70   69   73 1   
    71   70   71 1   
    72   70   74 1   
    73   70   75 1   
    74   71   72 2   
    75   71   76 1   
    76   76   77 1   
    77   76   85 1   
    78   77   78 1   
    79   77   80 1   
    80   77   86 1   
    81   78   79 2   
    82   78   93 1   
    83   80   81 1   
    84   80   87 1   
    85   80   88 1   
    86   81   82 1   
    87   81   89 1   
    88   81   90 1   
    89   82   83 1   
    90   82   84 2   
    91   83   91 1   
    92   83   92 1   
    93   93   94 1   
    94   93  100 1   
    95   94   95 1   
    96   94   97 1   
    97   94  101 1   
    98   95   96 2   
    99   95  109 1   
   100   97   98 1   
   101   97   99 1   
   102   97  102 1   
   103   98  103 1   
   104   98  104 1   
   105   98  105 1   
   106   99  106 1   
   107   99  107 1   
   108   99  108 1   
   109  109  110 1   
   110  109  117 1   
   111  110  111 1   
   112  110  113 1   
   113  110  118 1   
   114  111  112 2   
   115  111  123 1   
   116  113  114 1   
   117  113  119 1   
   118  113  120 1   
   119  114  115 1   
   120  114  116 2   
   121  115  121 1   
   122  115  122 1   
   123  123  124 1   
   124  123  135 1   
   125  124  125 1   
   126  124  127 1   
   127  124  136 1   
   128  125  126 2   
   129  125  144 1   
   130  127  128 1   
   131  127  137 1   
   132  127  138 1   
   133  128  129 ar  
   134  128  130 ar  
   135  129  131 ar  
   136  129  139 1   
   137  130  132 ar  
   138  130  140 1   
   139  131  133 ar  
   140  131  141 1   
   141  132  133 ar  
   142  132  142 1   
   143  133  134 1   
   144  134  143 1   
   145  144  145 1   
   146  144  153 1   
   147  145  146 1   
   148  145  148 1   
   149  145  154 1   
   150  146  147 2   
   151  146  159 1   
   152  148  149 1   
   153  148  155 1   
   154  148  156 1   
   155  149  150 1   
   156  149  157 1   
   157  149  158 1   
   158  150  151 1   
   159  150  152 1   
   160  159  160 1   
   161  159  168 1   
   162  160  161 1   
   163  160  163 1   
   164  160  169 1   
   165  161  162 2   
   166  161  174 1   
   167  163  164 1   
   168  163  170 1   
   169  163  171 1   
   170  164  165 1   
   171  164  172 1   
   172  164  173 1   
   173  165  166 1   
   174  165  167 1   
   175  174  175 1   
   176  174  179 1   
   177  175  176 1   
   178  175  177 1   
   179  175  178 1   
   180  181  182 1   
   181  181  183 1   
   182  184  186 1   
   183  184  188 1   
   184  185  187 1   
   185  185  189 1   
   186  190  191 1   
   187  190  192 1   
   188  193  194 1   
   189  193  195 1   
@<TRIPOS>SUBSTRUCTURE
     1 MOL         1 TEMP              0 ****  ****    0 ROOT
