@<TRIPOS>MOLECULE
MOL
  191   184     1     0     0
SMALL
resp


@<TRIPOS>ATOM
      1 C1          4.6990    2.7740    2.0170 c3        1 MOL     -0.235257
      2 C2          5.8230    2.6750    0.9550 c         1 MOL      0.725898
      3 O1          5.5370    2.2090   -0.1410 o         1 MOL     -0.511342
      4 H1          3.8110    3.2160    1.5660 hc        1 MOL      0.061659
      5 H2          4.4600    1.7780    2.3870 hc        1 MOL      0.061659
      6 H3          5.0350    3.3990    2.8450 hc        1 MOL      0.061659
      7 N1          7.0490    3.0960    1.2390 n         1 MOL     -0.537572
      8 C3          8.2430    3.1320    0.3600 c3        1 MOL      0.097843
      9 C4          8.7050    1.7700   -0.2230 c         1 MOL      0.552359
     10 O2          9.3160    1.6610   -1.2340 o         1 MOL     -0.505881
     11 C5          8.0750    4.1910   -0.7220 c3        1 MOL     -0.569303
     12 C6          7.3110    5.3700   -0.2110 c         1 MOL      0.835776
     13 O3          6.2860    5.7620   -0.7770 o         1 MOL     -0.665859
     14 O4          7.6510    6.0100    0.7920 o         1 MOL     -0.665859
     15 H4          7.1780    3.3890    2.2050 hn        1 MOL      0.288227
     16 H5          9.0140    3.4500    1.0520 h1        1 MOL      0.068206
     17 H6          7.5830    3.7490   -1.5910 hc        1 MOL      0.172795
     18 H7          9.0770    4.6090   -0.8600 hc        1 MOL      0.172795
     19 N2          8.3570    0.6200    0.4660 n         1 MOL     -0.502004
     20 C7          8.5050   -0.8090    0.1350 c3        1 MOL      0.177628
     21 C8          7.1990   -1.3930   -0.2740 c         1 MOL      0.459998
     22 O5          7.1650   -2.6170   -0.4090 o         1 MOL     -0.597181
     23 C9          9.2230   -1.4870    1.2870 c3        1 MOL     -0.206558
     24 C10        10.6920   -1.0170    1.3170 c3        1 MOL      0.237652
     25 C11        11.5230   -1.3920    2.6130 c3        1 MOL      0.041649
     26 C12        12.9910   -1.1320    2.5860 c3        1 MOL     -0.201294
     27 N3         13.2420    0.2680    3.1060 n4        1 MOL     -0.117200
     28 H8          7.7530    0.8030    1.2560 hn        1 MOL      0.182314
     29 H9          9.1140   -0.8610   -0.7660 h1        1 MOL      0.077714
     30 H10         9.2900   -2.5760    1.3030 hc        1 MOL      0.060754
     31 H11         8.7830   -1.2000    2.2430 hc        1 MOL      0.060754
     32 H12        10.7420    0.0700    1.3080 hc        1 MOL     -0.047678
     33 H13        11.1910   -1.3970    0.4210 hc        1 MOL     -0.047678
     34 H14        11.3340   -2.4570    2.7650 hc        1 MOL      0.003442
     35 H15        10.9430   -0.8740    3.3780 hc        1 MOL      0.003442
     36 H16        13.3360   -1.1960    1.5540 hx        1 MOL      0.145243
     37 H17        13.4500   -1.8080    3.3170 hx        1 MOL      0.145243
     38 H18        12.9020    0.3660    4.0590 hn        1 MOL      0.211861
     39 H19        14.2250    0.3970    3.2580 hn        1 MOL      0.211861
     40 H20        12.8730    1.0170    2.5410 hn        1 MOL      0.211861
     41 N4          6.1040   -0.6630   -0.4200 n         1 MOL     -0.205849
     42 C13         4.7140   -1.0800   -0.5770 c3        1 MOL     -0.095699
     43 C14         4.0910   -0.5800   -1.9490 c         1 MOL      0.357152
     44 O6          3.8680    0.6330   -2.1820 o         1 MOL     -0.429653
     45 C15         3.8620   -0.8620    0.6650 c3        1 MOL     -0.198970
     46 C16         2.4310   -1.3080    0.5880 c         1 MOL      0.700542
     47 O7          2.1210   -2.1680   -0.3170 o         1 MOL     -0.644704
     48 O8          1.6550   -1.0670    1.5040 o         1 MOL     -0.644704
     49 H21         6.2620    0.3090   -0.2020 hn        1 MOL      0.206992
     50 H22         4.7680   -2.1540   -0.7380 h1        1 MOL      0.110865
     51 H23         3.8140    0.1930    0.9430 hc        1 MOL      0.061456
     52 H24         4.3950   -1.3240    1.4980 hc        1 MOL      0.061456
     53 N5          3.7240   -1.5750   -2.7900 n         1 MOL     -0.196867
     54 C17         3.0900   -1.3080   -4.0690 c3        1 MOL     -0.211060
     55 C18         1.6100   -1.0200   -4.0110 c         1 MOL      0.397255
     56 O9          1.1260   -0.4010   -4.9530 o         1 MOL     -0.520614
     57 H25         4.1110   -2.4810   -2.5810 hn        1 MOL      0.184763
     58 H26         3.3060   -2.1560   -4.7070 h1        1 MOL      0.123631
     59 H27         3.4180   -0.3820   -4.5440 h1        1 MOL      0.123631
     60 N6          0.8830   -1.1710   -2.8660 n         1 MOL     -0.131146
     61 C19        -0.4820   -0.6330   -2.7550 c3        1 MOL      0.010773
     62 C20        -0.4340    0.9070   -2.4750 c         1 MOL      0.656577
     63 O10        -1.4240    1.5790   -2.7350 o         1 MOL     -0.591112
     64 C21        -1.1830   -1.3820   -1.6410 c3        1 MOL     -0.612614
     65 C22        -1.4240   -2.9020   -1.9180 c         1 MOL      0.944898
     66 N7         -2.3180   -3.1320   -2.8100 n         1 MOL     -0.719600
     67 O11        -0.7290   -3.8410   -1.5260 o         1 MOL     -0.795097
     68 H28         1.3230   -1.5470   -2.0380 hn        1 MOL      0.150444
     69 H29        -0.9660   -0.7540   -3.7260 h1        1 MOL      0.061511
     70 H30        -2.1210   -0.8280   -1.5990 hc        1 MOL      0.167352
     71 H31        -0.5540   -1.2560   -0.7570 hc        1 MOL      0.167352
     72 H32        -2.9440   -2.4020   -3.1050 hn        1 MOL      0.352806
     73 H33        -2.4050   -4.0790   -3.1590 hn        1 MOL      0.352806
     74 N8          0.7370    1.4210   -2.1490 n         1 MOL     -0.408746
     75 C23         1.0460    2.8650   -1.9180 c3        1 MOL     -0.093490
     76 C24         0.0720    3.6350   -1.0630 c         1 MOL      0.652135
     77 O12         0.1200    3.4210    0.1530 o         1 MOL     -0.580365
     78 H34         1.5000    0.8010   -1.9230 hn        1 MOL      0.302349
     79 H35         1.0710    3.4090   -2.8610 h1        1 MOL      0.108477
     80 H36         2.0920    3.0220   -1.6300 h1        1 MOL      0.108477
     81 N9         -0.7820    4.4950   -1.5740 n         1 MOL     -0.625792
     82 C25        -1.9540    5.1470   -0.9210 c3        1 MOL      0.371801
     83 C26        -3.0860    4.3300   -0.3310 c         1 MOL      0.212794
     84 O13        -4.2440    4.7060   -0.5500 o         1 MOL     -0.436977
     85 C27        -1.4430    6.3170   -0.0220 c3        1 MOL     -0.241305
     86 C28        -2.4630    7.3740    0.4840 ca        1 MOL     -0.029814
     87 C29        -2.9020    8.5210   -0.2800 ca        1 MOL     -0.085220
     88 C30        -2.9220    7.2030    1.8200 ca        1 MOL     -0.085220
     89 C31        -3.8600    9.4050    0.1810 ca        1 MOL     -0.331263
     90 C32        -3.8870    8.0930    2.3310 ca        1 MOL     -0.331263
     91 C33        -4.4210    9.1630    1.5050 ca        1 MOL      0.365673
     92 O14        -5.4250    9.8920    2.0220 oh        1 MOL     -0.450659
     93 H37        -0.7270    4.6840   -2.5720 hn        1 MOL      0.321910
     94 H38        -2.5610    5.6690   -1.6630 h1        1 MOL      0.031709
     95 H39        -0.6050    6.8180   -0.5000 hc        1 MOL      0.102223
     96 H40        -0.9110    5.9310    0.8460 hc        1 MOL      0.102223
     97 H41        -2.4560    8.7390   -1.2360 ha        1 MOL      0.130792
     98 H42        -2.5840    6.4030    2.4490 ha        1 MOL      0.130792
     99 H43        -4.3340   10.1720   -0.4060 ha        1 MOL      0.179215
    100 H44        -4.2340    7.8910    3.3210 ha        1 MOL      0.179215
    101 H45        -5.5700    9.5110    2.8910 ho        1 MOL      0.334908
    102 N10        -2.7440    3.1390    0.3140 n         1 MOL     -0.152234
    103 C34        -3.6000    2.1220    1.0520 c3        1 MOL     -0.387422
    104 C35        -4.4290    1.2940    0.0760 c         1 MOL      0.650870
    105 O15        -4.4620    0.1180    0.1150 o         1 MOL     -0.555489
    106 C36        -4.4740    2.8130    2.2190 c3        1 MOL      0.234000
    107 C37        -3.3950    3.4110    3.2070 c3        1 MOL      0.059258
    108 C38        -5.4650    1.8820    2.8920 c3        1 MOL     -0.326439
    109 C39        -4.0630    4.1580    4.4160 c3        1 MOL     -0.182113
    110 H46        -1.7650    3.1890    0.5460 hn        1 MOL      0.235486
    111 H47        -2.8570    1.5140    1.5630 h1        1 MOL      0.169483
    112 H48        -5.0430    3.6820    1.8800 hc        1 MOL      0.012087
    113 H49        -2.7250    4.1190    2.7180 hc        1 MOL      0.008736
    114 H50        -2.8280    2.5620    3.5930 hc        1 MOL      0.008736
    115 H51        -4.9940    1.1030    3.4910 hc        1 MOL      0.086910
    116 H52        -6.0380    2.5160    3.5800 hc        1 MOL      0.086910
    117 H53        -6.1450    1.3920    2.1940 hc        1 MOL      0.086910
    118 H54        -4.8940    4.7560    4.0440 hc        1 MOL      0.033624
    119 H55        -4.1630    3.5510    5.3140 hc        1 MOL      0.033624
    120 H56        -3.3920    4.9340    4.7740 hc        1 MOL      0.033624
    121 N11        -5.0440    1.9390   -0.8880 n         1 MOL     -0.395033
    122 C40        -5.5960    1.3300   -2.1270 c3        1 MOL     -0.028922
    123 C41        -6.8230    0.4480   -1.9290 c         1 MOL      0.396633
    124 O16        -7.1270   -0.4530   -2.7110 o         1 MOL     -0.494060
    125 C42        -5.9840    2.5390   -3.0100 c3        1 MOL      0.242149
    126 O17        -4.9280    3.4260   -3.3360 oh        1 MOL     -0.537326
    127 H57        -4.9630    2.9480   -0.9620 hn        1 MOL      0.248355
    128 H58        -4.8750    0.7350   -2.6850 h1        1 MOL      0.080743
    129 H59        -6.7850    3.0110   -2.4320 h1        1 MOL      0.015609
    130 H60        -6.2870    2.2010   -4.0000 h1        1 MOL      0.015609
    131 H61        -4.2160    2.7940   -3.4860 ho        1 MOL      0.375176
    132 N12        -7.5900    0.7590   -0.8650 n         1 MOL     -0.355513
    133 C43        -8.7330    0.0340   -0.2430 c3        1 MOL      0.221009
    134 C44        -8.5420   -1.5050   -0.1520 c         1 MOL      0.492808
    135 O18        -9.5260   -2.2800   -0.3850 o         1 MOL     -0.529593
    136 C45       -10.0790    0.4890   -0.8220 c3        1 MOL     -0.266241
    137 H62        -7.2180    1.4950   -0.2830 hn        1 MOL      0.217998
    138 H63        -8.8100    0.4110    0.7820 h1        1 MOL      0.038004
    139 H64       -10.2420    1.5640   -0.9240 hc        1 MOL      0.075297
    140 H65       -10.2690    0.0840   -1.8220 hc        1 MOL      0.075297
    141 H66       -10.8930    0.1370   -0.1920 hc        1 MOL      0.075297
    142 N13        -7.2950   -1.9560    0.0910 n         1 MOL     -0.639136
    143 C46        -6.7580   -3.3640   -0.0120 c3        1 MOL      0.498935
    144 C47        -5.7490   -3.6510    1.1150 c         1 MOL      0.360977
    145 O19        -5.1960   -2.7740    1.7200 o         1 MOL     -0.410906
    146 C48        -6.1370   -3.4280   -1.4030 c3        1 MOL     -0.181767
    147 H67        -6.5710   -1.2720    0.2520 hn        1 MOL      0.263606
    148 H68        -7.6120   -4.0400    0.0550 h1        1 MOL     -0.032707
    149 H69        -5.2690   -2.7870   -1.5660 hc        1 MOL      0.053663
    150 H70        -5.8890   -4.4700   -1.5990 hc        1 MOL      0.053663
    151 H71        -6.9070   -3.3180   -2.1700 hc        1 MOL      0.053663
    152 N14        -5.5600   -4.9180    1.4630 n         1 MOL     -0.416082
    153 C49        -4.5880   -5.4720    2.4660 c3        1 MOL      0.093197
    154 C50        -4.8630   -4.8310    3.7880 c         1 MOL      0.363835
    155 O20        -3.9510   -4.2900    4.3850 o         1 MOL     -0.477764
    156 C51        -3.1160   -5.4990    1.9920 c3        1 MOL      0.478672
    157 C52        -3.0620   -5.7770    0.4830 c3        1 MOL     -0.209544
    158 C53        -1.6620   -6.4030    0.0730 c         1 MOL      0.873995
    159 O21        -1.6620   -7.4000   -0.6990 o         1 MOL     -0.775398
    160 O22        -0.6790   -6.0710    0.7030 o         1 MOL     -0.775398
    161 H72        -6.0250   -5.5910    0.8710 hn        1 MOL      0.241329
    162 H73        -4.8520   -6.5110    2.6670 h1        1 MOL      0.008596
    163 H74        -2.6060   -6.2720    2.5670 hc        1 MOL     -0.107984
    164 H75        -2.6180   -4.5690    2.2690 hc        1 MOL     -0.107984
    165 H76        -3.2530   -4.8740   -0.1020 hc        1 MOL     -0.050356
    166 H77        -3.9000   -6.4300    0.2790 hc        1 MOL     -0.050356
    167 N15        -6.1630   -4.6560    4.1120 n         1 MOL     -0.314358
    168 C54        -6.5730   -3.7410    5.2740 c3        1 MOL     -0.116493
    169 H78        -7.4820   -3.2010    5.0070 h1        1 MOL      0.086132
    170 H79        -6.7570   -4.3420    6.1640 h1        1 MOL      0.086132
    171 H80        -5.7740   -3.0280    5.4760 h1        1 MOL      0.086132
    172 H81        -6.8360   -4.9430    3.4200 hn        1 MOL      0.207052
    173 Ca1         1.3660   -4.6290   -0.1920 Ca        1 MOL      1.793425
    174 O23         1.0960   -6.7810   -1.6590 oh        1 MOL     -0.847610
    175 H82         0.1820   -7.0500   -1.5470 ho        1 MOL      0.416688
    176 H83         1.4180   -7.3200   -2.3900 ho        1 MOL      0.416688
    177 O24         2.5860   -6.7530    0.9390 oh        1 MOL     -0.847610
    178 H84         2.2960   -7.6620    0.8240 ho        1 MOL      0.416688
    179 H85         3.3590   -6.8210    1.5020 ho        1 MOL      0.416688
    180 O25         1.8630   -4.2750   -2.9640 oh        1 MOL     -0.847610
    181 H86         2.6750   -4.7630   -3.0770 ho        1 MOL      0.416688
    182 H87         1.7210   -3.8380   -3.7950 ho        1 MOL      0.416688
    183 O26         2.3470   -4.0830    2.2880 oh        1 MOL     -0.847610
    184 H88         2.8060   -4.6420    2.9100 ho        1 MOL      0.416688
    185 H89         2.2620   -3.2370    2.7270 ho        1 MOL      0.416688
    186 O27         4.0030   -4.9840   -0.9100 oh        1 MOL     -0.847610
    187 H90         4.3430   -5.3230   -1.7370 ho        1 MOL      0.416688
    188 H91         4.7470   -5.0480   -0.3060 ho        1 MOL      0.416688
    189 O28        -0.2180   -2.9570    1.2220 oh        1 MOL     -0.847610
    190 H92        -1.0230   -2.5410    0.9100 ho        1 MOL      0.416688
    191 H93         0.3720   -2.2250    1.4170 ho        1 MOL      0.416688
@<TRIPOS>BOND
     1    1    2 1   
     2    1    4 1   
     3    1    5 1   
     4    1    6 1   
     5    2    3 2   
     6    2    7 1   
     7    7    8 1   
     8    7   15 1   
     9    8    9 1   
    10    8   11 1   
    11    8   16 1   
    12    9   10 2   
    13    9   19 1   
    14   11   12 1   
    15   11   17 1   
    16   11   18 1   
    17   12   13 1   
    18   12   14 1   
    19   19   20 1   
    20   19   28 1   
    21   20   21 1   
    22   20   23 1   
    23   20   29 1   
    24   21   22 2   
    25   21   41 1   
    26   23   24 1   
    27   23   30 1   
    28   23   31 1   
    29   24   25 1   
    30   24   32 1   
    31   24   33 1   
    32   25   26 1   
    33   25   34 1   
    34   25   35 1   
    35   26   27 1   
    36   26   36 1   
    37   26   37 1   
    38   27   38 1   
    39   27   39 1   
    40   27   40 1   
    41   41   42 1   
    42   41   49 1   
    43   42   43 1   
    44   42   45 1   
    45   42   50 1   
    46   43   44 2   
    47   43   53 1   
    48   45   46 1   
    49   45   51 1   
    50   45   52 1   
    51   46   47 1   
    52   46   48 1   
    53   53   54 1   
    54   53   57 1   
    55   54   55 1   
    56   54   58 1   
    57   54   59 1   
    58   55   56 2   
    59   55   60 1   
    60   60   61 1   
    61   60   68 1   
    62   61   62 1   
    63   61   64 1   
    64   61   69 1   
    65   62   63 2   
    66   62   74 1   
    67   64   65 1   
    68   64   70 1   
    69   64   71 1   
    70   65   66 1   
    71   65   67 2   
    72   66   72 1   
    73   66   73 1   
    74   74   75 1   
    75   74   78 1   
    76   75   76 1   
    77   75   79 1   
    78   75   80 1   
    79   76   77 2   
    80   76   81 1   
    81   81   82 1   
    82   81   93 1   
    83   82   83 1   
    84   82   85 1   
    85   82   94 1   
    86   83   84 2   
    87   83  102 1   
    88   85   86 1   
    89   85   95 1   
    90   85   96 1   
    91   86   87 ar  
    92   86   88 ar  
    93   87   89 ar  
    94   87   97 1   
    95   88   90 ar  
    96   88   98 1   
    97   89   91 ar  
    98   89   99 1   
    99   90   91 ar  
   100   90  100 1   
   101   91   92 1   
   102   92  101 1   
   103  102  103 1   
   104  102  110 1   
   105  103  104 1   
   106  103  106 1   
   107  103  111 1   
   108  104  105 2   
   109  104  121 1   
   110  106  107 1   
   111  106  108 1   
   112  106  112 1   
   113  107  109 1   
   114  107  113 1   
   115  107  114 1   
   116  108  115 1   
   117  108  116 1   
   118  108  117 1   
   119  109  118 1   
   120  109  119 1   
   121  109  120 1   
   122  121  122 1   
   123  121  127 1   
   124  122  123 1   
   125  122  125 1   
   126  122  128 1   
   127  123  124 2   
   128  123  132 1   
   129  125  126 1   
   130  125  129 1   
   131  125  130 1   
   132  126  131 1   
   133  132  133 1   
   134  132  137 1   
   135  133  134 1   
   136  133  136 1   
   137  133  138 1   
   138  134  135 2   
   139  134  142 1   
   140  136  139 1   
   141  136  140 1   
   142  136  141 1   
   143  142  143 1   
   144  142  147 1   
   145  143  144 1   
   146  143  146 1   
   147  143  148 1   
   148  144  145 2   
   149  144  152 1   
   150  146  149 1   
   151  146  150 1   
   152  146  151 1   
   153  152  153 1   
   154  152  161 1   
   155  153  154 1   
   156  153  156 1   
   157  153  162 1   
   158  154  155 2   
   159  154  167 1   
   160  156  157 1   
   161  156  163 1   
   162  156  164 1   
   163  157  158 1   
   164  157  165 1   
   165  157  166 1   
   166  158  159 1   
   167  158  160 1   
   168  167  168 1   
   169  167  172 1   
   170  168  169 1   
   171  168  170 1   
   172  168  171 1   
   173  174  175 1   
   174  174  176 1   
   175  177  178 1   
   176  177  179 1   
   177  180  181 1   
   178  180  182 1   
   179  183  184 1   
   180  183  185 1   
   181  186  187 1   
   182  186  188 1   
   183  189  190 1   
   184  189  191 1   
@<TRIPOS>SUBSTRUCTURE
     1 MOL         1 TEMP              0 ****  ****    0 ROOT
