@<TRIPOS>MOLECULE
MOL
  195   189     1     0     0
SMALL
resp


@<TRIPOS>ATOM
      1 C1         -6.9660   -2.4780    4.4100 c3        1 MOL     -0.465738
      2 C2         -6.2000   -2.0870    3.0980 c         1 MOL      0.667087
      3 O1         -5.9340   -2.9170    2.2270 o         1 MOL     -0.529035
      4 H1         -7.8430   -3.0730    4.1540 hc        1 MOL      0.129372
      5 H2         -6.3080   -3.0610    5.0550 hc        1 MOL      0.129372
      6 H3         -7.2800   -1.5740    4.9310 hc        1 MOL      0.129372
      7 N1         -5.9430   -0.7430    2.8720 n         1 MOL     -0.518178
      8 C3         -5.4370   -0.1510    1.5990 c3        1 MOL      0.280627
      9 C4         -3.8860   -0.3530    1.5020 c         1 MOL      0.015282
     10 O2         -3.3140    0.2770    0.6190 o         1 MOL     -0.065423
     11 C5         -5.8850    1.3210    1.4380 c3        1 MOL     -0.362779
     12 C6         -5.7190    2.1450    2.7560 c         1 MOL      0.667106
     13 O3         -4.6430    2.6740    3.0980 o         1 MOL     -0.667780
     14 O4         -6.7430    2.2810    3.4700 o         1 MOL     -0.667780
     15 H4         -6.2730   -0.1050    3.5900 hn        1 MOL      0.256080
     16 H5         -5.7770   -0.7660    0.7720 h1        1 MOL      0.079870
     17 H6         -6.9190    1.3740    1.1010 hc        1 MOL      0.100413
     18 H7         -5.4350    1.7580    0.5420 hc        1 MOL      0.100413
     19 N2         -3.1680   -1.0630    2.3710 n         1 MOL     -0.239345
     20 C7         -1.7600   -0.9230    2.6460 c3        1 MOL      0.119995
     21 C8         -0.9210   -2.1970    2.4070 c         1 MOL      0.443949
     22 O5         -1.2260   -3.2590    2.9480 o         1 MOL     -0.525473
     23 C9         -1.6270   -0.4360    4.0990 c3        1 MOL     -0.028326
     24 C10        -2.3060    0.9400    4.3630 c3        1 MOL      0.080126
     25 C11        -2.0270    1.3910    5.8450 c3        1 MOL     -0.245173
     26 C12        -2.9150    2.5830    6.1510 c3        1 MOL     -0.110540
     27 N3         -4.3120    2.3070    6.4620 n4        1 MOL     -0.409816
     28 H8         -3.6620   -1.7930    2.8590 hn        1 MOL      0.242657
     29 H9         -1.2980   -0.1850    1.9940 h1        1 MOL     -0.017959
     30 H10        -0.5720   -0.4870    4.3550 hc        1 MOL      0.008221
     31 H11        -2.1360   -1.2050    4.6850 hc        1 MOL      0.008221
     32 H12        -3.3800    0.8350    4.2140 hc        1 MOL      0.044826
     33 H13        -1.9010    1.6740    3.6540 hc        1 MOL      0.044826
     34 H14        -0.9790    1.6330    6.0220 hc        1 MOL      0.107819
     35 H15        -2.1890    0.5790    6.5520 hc        1 MOL      0.107819
     36 H16        -2.8190    3.2510    5.3060 hx        1 MOL      0.149563
     37 H17        -2.4370    3.1030    6.9920 hx        1 MOL      0.149563
     38 H18        -4.5970    1.5760    5.8170 hn        1 MOL      0.338845
     39 H19        -4.3250    1.8290    7.3550 hn        1 MOL      0.338845
     40 H20        -4.9700    3.0700    6.4250 hn        1 MOL      0.338845
     41 N4          0.2050   -2.1800    1.6230 n         1 MOL     -0.301896
     42 C13         0.9670   -1.0920    1.0370 c3        1 MOL      0.055443
     43 C14         1.2930    0.1280    1.9420 c         1 MOL      0.578762
     44 O6          0.5410    1.0790    2.0140 o         1 MOL     -0.558329
     45 C15         0.3430   -0.6690   -0.3030 c3        1 MOL     -0.087358
     46 C16         0.5500   -1.7650   -1.4440 c         1 MOL      0.489755
     47 O7          1.2360   -2.7760   -1.2360 o         1 MOL     -0.638701
     48 O8         -0.1680   -1.6850   -2.5180 o         1 MOL     -0.638701
     49 H21         0.5480   -3.0810    1.2950 hn        1 MOL      0.154759
     50 H22         1.9960   -1.3900    0.8350 h1        1 MOL     -0.038421
     51 H23         0.8470    0.2500   -0.6130 hc        1 MOL      0.050340
     52 H24        -0.7300   -0.5140   -0.3210 hc        1 MOL      0.050340
     53 N5          2.4860    0.1770    2.5730 n         1 MOL     -0.503966
     54 C17         3.5190   -0.8170    2.5360 c3        1 MOL      0.087219
     55 C18         4.5830   -0.8470    3.6460 c         1 MOL      0.447903
     56 O9          4.6240   -0.0260    4.6230 o         1 MOL     -0.520448
     57 H25         2.7100    1.0460    3.0330 hn        1 MOL      0.329530
     58 H26         4.0050   -0.7390    1.5690 h1        1 MOL      0.088640
     59 H27         3.1160   -1.8290    2.6060 h1        1 MOL      0.088640
     60 N6          5.3750   -1.9290    3.7470 n         1 MOL     -0.417676
     61 C19         5.6410   -2.7770    2.5400 c3        1 MOL      0.082028
     62 C20         6.6470   -1.9580    1.6150 c         1 MOL      0.380989
     63 O10         7.3730   -1.0320    2.0550 o         1 MOL     -0.410342
     64 C21         6.2360   -4.1270    3.0790 c3        1 MOL     -0.228577
     65 C22         7.4720   -3.9550    3.9210 c         1 MOL      0.761796
     66 O11         7.4010   -3.6040    5.1300 o         1 MOL     -0.651609
     67 O12         8.5800   -4.1950    3.4210 o         1 MOL     -0.651609
     68 H28         5.8800   -2.0800    4.6070 hn        1 MOL      0.300720
     69 H29         4.7110   -2.9900    2.0040 h1        1 MOL     -0.035887
     70 H30         6.5230   -4.8060    2.2760 hc        1 MOL      0.021138
     71 H31         5.4300   -4.6030    3.6370 hc        1 MOL      0.021138
     72 N7          6.6920   -2.4740    0.3820 n         1 MOL     -0.179465
     73 C23         7.4800   -2.0820   -0.7000 c3        1 MOL     -0.287290
     74 C24         6.9080   -0.9250   -1.5400 c         1 MOL      0.510531
     75 O13         7.6260   -0.1340   -2.1490 o         1 MOL     -0.538606
     76 H32         6.0310   -3.1870    0.1040 hn        1 MOL      0.202112
     77 H33         7.5770   -2.9810   -1.3080 h1        1 MOL      0.149201
     78 H34         8.4950   -1.8540   -0.3690 h1        1 MOL      0.149201
     79 N8          5.6000   -0.6950   -1.4850 n         1 MOL     -0.257032
     80 C25         4.9630    0.5010   -1.9530 c3        1 MOL     -0.105023
     81 C26         5.0260    1.6210   -0.8900 c         1 MOL      0.514219
     82 O14         4.6630    1.3340    0.2590 o         1 MOL     -0.515369
     83 C27         3.5140    0.2570   -2.3710 c3        1 MOL      0.380118
     84 C28         3.3890   -0.6000   -3.6330 c3        1 MOL     -0.417992
     85 O15         2.8380    1.4940   -2.6750 oh        1 MOL     -0.518928
     86 H35         4.9620   -1.4080   -1.1650 hn        1 MOL      0.134880
     87 H36         5.4670    0.8860   -2.8380 h1        1 MOL      0.080616
     88 H37         3.0600   -0.2590   -1.5280 h1        1 MOL      0.058145
     89 H38         1.9890    1.4290   -2.2330 ho        1 MOL      0.338324
     90 H39         2.3710   -0.9490   -3.8380 hc        1 MOL      0.101072
     91 H40         3.6810    0.0380   -4.4620 hc        1 MOL      0.101072
     92 H41         3.9700   -1.5130   -3.4840 hc        1 MOL      0.101072
     93 N9          5.2060    2.8710   -1.3520 n         1 MOL     -0.183238
     94 C29         5.2100    4.0410   -0.4650 c3        1 MOL     -0.295722
     95 C30         3.8230    4.7680   -0.1080 c         1 MOL      0.441568
     96 O16         3.7360    5.6780    0.7140 o         1 MOL     -0.522234
     97 C31         6.1460    5.1390   -0.9770 c3        1 MOL      0.206515
     98 C32         5.8180    5.5050   -2.4600 c3        1 MOL      0.155920
     99 C33         7.6150    4.6790   -0.8750 c3        1 MOL     -0.315964
    100 C34         6.3590    6.8820   -2.9900 c3        1 MOL     -0.381061
    101 H42         5.3490    2.9420   -2.3530 hn        1 MOL      0.208603
    102 H43         5.4940    3.6230    0.5040 h1        1 MOL      0.168384
    103 H44         6.0980    6.0240   -0.3330 hc        1 MOL      0.029033
    104 H45         4.7310    5.5030   -2.4980 hc        1 MOL     -0.011906
    105 H46         6.2150    4.6930   -3.0760 hc        1 MOL     -0.011906
    106 H47         7.8450    3.7840   -1.4600 hc        1 MOL      0.076430
    107 H48         8.3520    5.4700   -1.0260 hc        1 MOL      0.076430
    108 H49         7.7720    4.3380    0.1470 hc        1 MOL      0.076430
    109 H50         5.9350    7.7050   -2.4150 hc        1 MOL      0.092517
    110 H51         7.4320    7.0040   -2.8560 hc        1 MOL      0.092517
    111 H52         5.9980    6.9470   -4.0150 hc        1 MOL      0.092517
    112 N10         2.7670    4.3830   -0.8300 n         1 MOL     -0.010890
    113 C35         1.4110    4.9570   -0.8840 c3        1 MOL     -0.341143
    114 C36         0.3100    3.8680   -0.9050 c         1 MOL      0.639064
    115 O17         0.5530    2.7980   -1.3780 o         1 MOL     -0.431626
    116 C37         1.2390    5.9360   -2.0700 c3        1 MOL      0.347296
    117 C38         1.5270    5.2540   -3.3950 c3        1 MOL     -0.096928
    118 O18         2.0040    7.1310   -1.9340 oh        1 MOL     -0.582472
    119 H53         2.8210    3.5980   -1.4690 hn        1 MOL      0.009674
    120 H54         1.2640    5.4300    0.0910 h1        1 MOL      0.124022
    121 H55         0.1970    6.2220   -2.1630 h1        1 MOL     -0.028591
    122 H56         1.3840    7.7400   -1.5210 ho        1 MOL      0.375147
    123 H57         0.9270    4.3470   -3.4510 hc        1 MOL      0.032485
    124 H58         1.2880    5.9290   -4.2190 hc        1 MOL      0.032485
    125 H59         2.5500    4.9020   -3.5310 hc        1 MOL      0.032485
    126 N11        -0.8280    4.1730   -0.2970 n         1 MOL     -0.462084
    127 C39        -1.9720    3.2810   -0.1820 c3        1 MOL     -0.051726
    128 C40        -2.4640    2.8860   -1.5830 c         1 MOL      0.409913
    129 O19        -2.3420    3.6410   -2.5470 o         1 MOL     -0.508355
    130 C41        -3.0840    3.8850    0.6530 c3        1 MOL      0.483139
    131 C42        -3.5060    5.1940    0.0500 c3        1 MOL     -0.155405
    132 O20        -2.6220    4.0900    1.9570 oh        1 MOL     -0.614486
    133 H60        -0.7880    5.0210    0.2450 hn        1 MOL      0.304742
    134 H61        -1.6190    2.3410    0.2280 h1        1 MOL      0.143336
    135 H62        -3.9630    3.2510    0.7470 h1        1 MOL     -0.108143
    136 H63        -3.4200    3.8380    2.4350 ho        1 MOL      0.399847
    137 H64        -2.8110    5.9910    0.2800 hc        1 MOL      0.012908
    138 H65        -3.7070    5.0980   -1.0240 hc        1 MOL      0.012908
    139 H66        -4.4510    5.4570    0.5310 hc        1 MOL      0.012908
    140 N12        -3.1290    1.6930   -1.7490 n         1 MOL      0.121659
    141 C43        -3.5940    1.2450   -3.0290 c3        1 MOL     -0.329064
    142 C44        -3.7340   -0.2870   -3.1620 c         1 MOL      0.614764
    143 O21        -4.0590   -0.8370   -4.1950 o         1 MOL     -0.564498
    144 C45        -4.9230    1.8590   -3.3150 c3        1 MOL     -0.009513
    145 C46        -6.1560    1.4880   -2.5190 c3        1 MOL      0.131144
    146 C47        -7.2280    2.5560   -2.5180 c3        1 MOL     -0.168613
    147 C48        -6.7700    3.6090   -1.4600 c3        1 MOL      0.194790
    148 N13        -7.9200    4.4830   -1.2080 n4        1 MOL     -0.515015
    149 H67        -3.3160    1.1520   -0.9100 hn        1 MOL     -0.537003
    150 H68        -2.8520    1.5820   -3.7590 h1        1 MOL      0.171328
    151 H69        -5.1960    1.8100   -4.3730 hc        1 MOL      0.027258
    152 H70        -4.7700    2.9220   -3.1710 hc        1 MOL      0.027258
    153 H71        -5.9370    1.2180   -1.4880 hc        1 MOL      0.002140
    154 H72        -6.5880    0.5810   -2.9420 hc        1 MOL      0.002140
    155 H73        -8.1610    2.1560   -2.1180 hc        1 MOL      0.058942
    156 H74        -7.4060    2.9900   -3.5030 hc        1 MOL      0.058942
    157 H75        -5.9840    4.2090   -1.9100 hx        1 MOL      0.067859
    158 H76        -6.4470    3.2450   -0.4860 hx        1 MOL      0.067859
    159 H77        -7.9860    5.1770   -1.9390 hn        1 MOL      0.350627
    160 H78        -8.7870    3.9660   -1.1120 hn        1 MOL      0.350627
    161 H79        -7.7060    5.0740   -0.4200 hn        1 MOL      0.350627
    162 N14        -3.7660   -0.9860   -2.0330 n         1 MOL      0.182734
    163 C49        -3.8360   -2.4130   -2.0930 c3        1 MOL     -1.384472
    164 C50        -5.2670   -2.8120   -2.2480 c         1 MOL      0.901790
    165 O22        -6.1860   -2.3060   -1.5610 o         1 MOL     -0.600164
    166 C51        -3.2580   -2.9430   -0.7490 c3        1 MOL      0.875201
    167 C52        -3.3620   -4.4480   -0.5250 c3        1 MOL     -1.053046
    168 C53        -2.6830   -5.3090   -1.6100 c         1 MOL      1.107956
    169 O23        -3.2710   -5.6260   -2.6750 o         1 MOL     -0.859540
    170 O24        -1.4970   -5.6810   -1.3720 o         1 MOL     -0.859540
    171 H80        -3.4360   -0.5580   -1.1720 hn        1 MOL      0.250694
    172 H81        -3.1810   -2.7750   -2.8850 h1        1 MOL      0.372463
    173 H82        -3.7000   -2.5190    0.1400 hc        1 MOL     -0.064384
    174 H83        -2.2540   -2.5910   -0.5270 hc        1 MOL     -0.064384
    175 H84        -4.4110   -4.7250   -0.4430 hc        1 MOL      0.248192
    176 H85        -3.0220   -4.8090    0.4380 hc        1 MOL      0.248192
    177 N15        -5.5190   -3.9060   -2.9880 n         1 MOL     -0.492494
    178 C54        -6.8280   -4.5500   -3.2840 c3        1 MOL     -0.123472
    179 H86        -7.5980   -4.1160   -2.6470 h1        1 MOL      0.082375
    180 H87        -7.0870   -4.3840   -4.3300 h1        1 MOL      0.082375
    181 H88        -6.7590   -5.6210   -3.0920 h1        1 MOL      0.082375
    182 H89        -4.7140   -4.4120   -3.3170 hn        1 MOL      0.478138
    183 Ca1         1.1240   -5.5140   -1.5440 Ca        1 MOL      1.602544
    184 O25         2.6550   -7.3370   -2.7750 oh        1 MOL     -0.774345
    185 H90         2.2620   -8.2140   -2.7760 ho        1 MOL      0.387750
    186 H91         3.5330   -7.4820   -2.4310 ho        1 MOL      0.387750
    187 O26        -0.0480   -4.3370   -3.5800 oh        1 MOL     -0.774345
    188 H92        -0.2230   -3.4110   -3.4160 ho        1 MOL      0.387750
    189 H93        -0.6560   -4.5790   -4.2810 ho        1 MOL      0.387750
    190 O27         2.9850   -4.2770   -3.4320 oh        1 MOL     -0.774345
    191 H94         2.2810   -3.6800   -3.6800 ho        1 MOL      0.387750
    192 H95         3.6310   -4.2000   -4.1390 ho        1 MOL      0.387750
    193 O28        -0.3780   -7.4310   -3.2050 oh        1 MOL     -0.774345
    194 H96        -0.5880   -8.2980   -2.8670 ho        1 MOL      0.387750
    195 H97        -1.2020   -6.9530   -3.1680 ho        1 MOL      0.387750
@<TRIPOS>BOND
     1    1    2 1   
     2    1    4 1   
     3    1    5 1   
     4    1    6 1   
     5    2    3 2   
     6    2    7 1   
     7    7    8 1   
     8    7   15 1   
     9    8    9 1   
    10    8   11 1   
    11    8   16 1   
    12    9   10 2   
    13    9   19 1   
    14   11   12 1   
    15   11   17 1   
    16   11   18 1   
    17   12   13 1   
    18   12   14 1   
    19   19   20 1   
    20   19   28 1   
    21   20   21 1   
    22   20   23 1   
    23   20   29 1   
    24   21   22 2   
    25   21   41 1   
    26   23   24 1   
    27   23   30 1   
    28   23   31 1   
    29   24   25 1   
    30   24   32 1   
    31   24   33 1   
    32   25   26 1   
    33   25   34 1   
    34   25   35 1   
    35   26   27 1   
    36   26   36 1   
    37   26   37 1   
    38   27   38 1   
    39   27   39 1   
    40   27   40 1   
    41   41   42 1   
    42   41   49 1   
    43   42   43 1   
    44   42   45 1   
    45   42   50 1   
    46   43   44 2   
    47   43   53 1   
    48   45   46 1   
    49   45   51 1   
    50   45   52 1   
    51   46   47 1   
    52   46   48 1   
    53   53   54 1   
    54   53   57 1   
    55   54   55 1   
    56   54   58 1   
    57   54   59 1   
    58   55   56 2   
    59   55   60 1   
    60   60   61 1   
    61   60   68 1   
    62   61   62 1   
    63   61   64 1   
    64   61   69 1   
    65   62   63 2   
    66   62   72 1   
    67   64   65 1   
    68   64   70 1   
    69   64   71 1   
    70   65   66 1   
    71   65   67 1   
    72   72   73 1   
    73   72   76 1   
    74   73   74 1   
    75   73   77 1   
    76   73   78 1   
    77   74   75 2   
    78   74   79 1   
    79   79   80 1   
    80   79   86 1   
    81   80   81 1   
    82   80   83 1   
    83   80   87 1   
    84   81   82 2   
    85   81   93 1   
    86   83   84 1   
    87   83   85 1   
    88   83   88 1   
    89   84   90 1   
    90   84   91 1   
    91   84   92 1   
    92   85   89 1   
    93   93   94 1   
    94   93  101 1   
    95   94   95 1   
    96   94   97 1   
    97   94  102 1   
    98   95   96 2   
    99   95  112 1   
   100   97   98 1   
   101   97   99 1   
   102   97  103 1   
   103   98  100 1   
   104   98  104 1   
   105   98  105 1   
   106   99  106 1   
   107   99  107 1   
   108   99  108 1   
   109  100  109 1   
   110  100  110 1   
   111  100  111 1   
   112  112  113 1   
   113  112  119 1   
   114  113  114 1   
   115  113  116 1   
   116  113  120 1   
   117  114  115 2   
   118  114  126 1   
   119  116  117 1   
   120  116  118 1   
   121  116  121 1   
   122  117  123 1   
   123  117  124 1   
   124  117  125 1   
   125  118  122 1   
   126  126  127 1   
   127  126  133 1   
   128  127  128 1   
   129  127  130 1   
   130  127  134 1   
   131  128  129 2   
   132  128  140 1   
   133  130  131 1   
   134  130  132 1   
   135  130  135 1   
   136  131  137 1   
   137  131  138 1   
   138  131  139 1   
   139  132  136 1   
   140  140  141 1   
   141  140  149 1   
   142  141  142 1   
   143  141  144 1   
   144  141  150 1   
   145  142  143 2   
   146  142  162 1   
   147  144  145 1   
   148  144  151 1   
   149  144  152 1   
   150  145  146 1   
   151  145  153 1   
   152  145  154 1   
   153  146  147 1   
   154  146  155 1   
   155  146  156 1   
   156  147  148 1   
   157  147  157 1   
   158  147  158 1   
   159  148  159 1   
   160  148  160 1   
   161  148  161 1   
   162  162  163 1   
   163  162  171 1   
   164  163  164 1   
   165  163  166 1   
   166  163  172 1   
   167  164  165 2   
   168  164  177 1   
   169  166  167 1   
   170  166  173 1   
   171  166  174 1   
   172  167  168 1   
   173  167  175 1   
   174  167  176 1   
   175  168  169 1   
   176  168  170 1   
   177  177  178 1   
   178  177  182 1   
   179  178  179 1   
   180  178  180 1   
   181  178  181 1   
   182  184  185 1   
   183  184  186 1   
   184  187  188 1   
   185  187  189 1   
   186  190  191 1   
   187  190  192 1   
   188  193  194 1   
   189  193  195 1   
@<TRIPOS>SUBSTRUCTURE
     1 MOL         1 TEMP              0 ****  ****    0 ROOT
