@<TRIPOS>MOLECULE
MOL
  192   187     1     0     0
SMALL
resp


@<TRIPOS>ATOM
      1 C1         -1.7030    4.0240   -3.2390 c3        1 MOL     -0.419585
      2 C2         -0.6520    4.0380   -2.1010 c         1 MOL      0.727250
      3 O1          0.2130    3.1890   -2.0340 o         1 MOL     -0.542197
      4 H1         -1.3360    3.4130   -4.0640 hc        1 MOL      0.094841
      5 H2         -2.6380    3.6040   -2.8670 hc        1 MOL      0.094841
      6 H3         -1.8740    5.0410   -3.5890 hc        1 MOL      0.094841
      7 N1         -0.6320    5.0760   -1.2920 n         1 MOL     -0.388183
      8 C3          0.1740    5.4060   -0.1600 c3        1 MOL     -0.216378
      9 C4          1.7280    5.2070   -0.3930 c         1 MOL      0.792412
     10 O2          2.4330    4.6690    0.5050 o         1 MOL     -0.556315
     11 C5         -0.3340    4.7670    1.1660 c3        1 MOL     -0.337214
     12 C6         -1.8210    5.0580    1.3280 c         1 MOL      0.892506
     13 O3         -2.1990    6.1890    1.7280 o         1 MOL     -0.776290
     14 O4         -2.6310    4.0950    1.2020 o         1 MOL     -0.776290
     15 H4         -1.3400    5.7560   -1.5230 hn        1 MOL      0.205144
     16 H5          0.0330    6.4850   -0.1000 h1        1 MOL      0.099741
     17 H6          0.1840    5.3080    1.9580 hc        1 MOL      0.138074
     18 H7         -0.0420    3.7150    1.1430 hc        1 MOL      0.138074
     19 N2          2.2450    5.5660   -1.6130 n         1 MOL     -0.626317
     20 C7          3.6940    5.3960   -1.8780 c3        1 MOL     -0.083747
     21 C8          4.6870    6.1450   -0.9230 c         1 MOL      0.457256
     22 O5          4.3220    7.2520   -0.4670 o         1 MOL     -0.545857
     23 C9          3.9450    5.5920   -3.3950 c3        1 MOL      0.040576
     24 C10         3.8730    7.1300   -3.6070 c3        1 MOL     -0.013465
     25 C11         2.9780    4.9420   -4.2830 c3        1 MOL     -0.113196
     26 C12         4.3860    7.5410   -4.9570 c3        1 MOL     -0.122466
     27 H8          1.6380    5.9790   -2.3110 hn        1 MOL      0.331397
     28 H9          3.8220    4.3300   -1.6670 h1        1 MOL      0.150252
     29 H10         4.9680    5.2730   -3.6050 hc        1 MOL      0.106516
     30 H11         4.4120    7.6110   -2.7930 hc        1 MOL      0.032727
     31 H12         2.9060    7.5860   -3.3940 hc        1 MOL      0.032727
     32 H13         3.3060    5.1420   -5.3070 hc        1 MOL      0.024506
     33 H14         2.9690    3.8640   -4.1400 hc        1 MOL      0.024506
     34 H15         1.9840    5.3700   -4.1380 hc        1 MOL      0.024506
     35 H16         5.3820    7.1640   -5.1700 hc        1 MOL      0.016847
     36 H17         3.7280    7.1810   -5.7480 hc        1 MOL      0.016847
     37 H18         4.3400    8.6260   -5.0430 hc        1 MOL      0.016847
     38 N3          5.8670    5.5110   -0.7160 n         1 MOL     -0.343888
     39 C13         6.3950    4.2200   -1.3040 c3        1 MOL     -0.044359
     40 C14         5.9130    3.0300   -0.4250 c         1 MOL      0.577627
     41 O6          6.1300    1.9650   -0.8680 o         1 MOL     -0.514579
     42 C15         7.9250    4.3060   -1.5640 c3        1 MOL     -0.151821
     43 C16         8.7050    4.6790   -0.3090 c         1 MOL      0.644862
     44 O7          8.7210    5.8650    0.0590 o         1 MOL     -0.686326
     45 O8          9.3080    3.7680    0.3270 o         1 MOL     -0.686326
     46 H19         6.5610    5.9390   -0.1170 hn        1 MOL      0.229554
     47 H20         5.9390    4.1410   -2.2880 h1        1 MOL      0.025110
     48 H21         8.0340    5.0840   -2.3210 hc        1 MOL      0.034919
     49 H22         8.2330    3.3460   -1.9760 hc        1 MOL      0.034919
     50 N4          5.1220    3.3180    0.6500 n         1 MOL     -0.405512
     51 C17         4.3680    2.4640    1.4950 c3        1 MOL     -0.078970
     52 C18         5.1540    1.2800    2.1080 c         1 MOL      0.540280
     53 O9          6.3420    1.1210    1.9540 o         1 MOL     -0.482092
     54 H23         4.8820    4.2950    0.7700 hn        1 MOL      0.308961
     55 H24         3.4580    2.1490    0.9840 h1        1 MOL      0.079196
     56 H25         4.0280    3.0570    2.3510 h1        1 MOL      0.079196
     57 N5          4.4160    0.3750    2.8300 n         1 MOL     -0.423754
     58 C19         4.8130   -0.8910    3.4990 c3        1 MOL     -0.164457
     59 C20         5.6410   -1.9790    2.7590 c         1 MOL      0.431591
     60 O10         6.1300   -2.9410    3.3650 o         1 MOL     -0.556969
     61 C21         3.4670   -1.5400    3.9040 c3        1 MOL     -0.143759
     62 C22         2.5780   -1.7430    2.7360 c         1 MOL      0.809454
     63 O11         1.7600   -0.8610    2.5260 o         1 MOL     -0.724609
     64 O12         2.6690   -2.7890    2.0380 o         1 MOL     -0.724609
     65 H26         3.4790    0.6110    3.1010 hn        1 MOL      0.252122
     66 H27         5.2790   -0.5960    4.4390 h1        1 MOL      0.136425
     67 H28         3.0620   -0.9260    4.7100 hc        1 MOL      0.014966
     68 H29         3.6170   -2.5530    4.2810 hc        1 MOL      0.014966
     69 N6          5.7760   -1.7450    1.4610 n         1 MOL     -0.038072
     70 C23         6.6000   -2.5880    0.5190 c3        1 MOL     -0.367777
     71 C24         6.3560   -4.1050    0.4610 c         1 MOL      0.584074
     72 O13         7.3050   -4.7760    0.1600 o         1 MOL     -0.559452
     73 H30         5.3070   -0.9430    1.0960 hn        1 MOL      0.214843
     74 H31         7.6470   -2.4330    0.7710 h1        1 MOL      0.142466
     75 H32         6.4460   -2.1810   -0.4920 h1        1 MOL      0.142466
     76 N7          5.1480   -4.4890    0.9140 n         1 MOL      0.063854
     77 C25         4.5400   -5.8410    0.9570 c3        1 MOL     -0.258195
     78 C26         3.9950   -6.2840   -0.4220 c         1 MOL      0.685006
     79 O14         3.9970   -7.4440   -0.7330 o         1 MOL     -0.566150
     80 C27         5.3540   -7.0130    1.6000 c3        1 MOL      0.148840
     81 C28         5.7430   -6.5980    2.9920 c3        1 MOL     -0.313873
     82 C29         4.6070   -6.5410    3.9990 c         1 MOL      0.647266
     83 N8          4.0270   -5.3890    4.4320 n         1 MOL     -0.848028
     84 O15         4.1590   -7.5720    4.4780 o         1 MOL     -0.573723
     85 H33         4.5710   -3.7020    1.1630 hn        1 MOL     -0.024768
     86 H34         3.6730   -5.7510    1.6020 h1        1 MOL      0.156284
     87 H35         6.2790   -7.1380    1.0460 hc        1 MOL      0.012289
     88 H36         4.7820   -7.9330    1.6970 hc        1 MOL      0.012289
     89 H37         6.3410   -5.6860    2.9380 hc        1 MOL      0.075423
     90 H38         6.3090   -7.4850    3.2870 hc        1 MOL      0.075423
     91 H39         4.3870   -4.5410    4.0160 hn        1 MOL      0.397620
     92 H40         3.2730   -5.2830    5.0820 hn        1 MOL      0.397620
     93 N9          3.4820   -5.3290   -1.2220 n         1 MOL     -0.528717
     94 C30         3.0590   -5.6850   -2.5960 c3        1 MOL     -0.299692
     95 C31         1.7940   -4.9800   -3.0120 c         1 MOL      0.771531
     96 O16         1.1640   -5.4000   -3.9740 o         1 MOL     -0.637211
     97 C32         4.1910   -5.4150   -3.5940 c3        1 MOL      0.246235
     98 C33         4.3970   -3.8610   -3.7280 c3        1 MOL     -0.192422
     99 C34         5.5690   -6.0310   -3.3050 c3        1 MOL     -0.192422
    100 H41         3.6240   -4.3900   -0.8960 hn        1 MOL      0.285485
    101 H42         2.7680   -6.7280   -2.5290 h1        1 MOL      0.172026
    102 H43         3.8670   -5.8120   -4.5480 hc        1 MOL     -0.011237
    103 H44         4.7760   -3.4420   -2.7940 hc        1 MOL      0.039184
    104 H45         5.2190   -3.8630   -4.4410 hc        1 MOL      0.039184
    105 H46         3.5220   -3.3700   -4.1440 hc        1 MOL      0.039184
    106 H47         5.5330   -7.1210   -3.3250 hc        1 MOL      0.039184
    107 H48         6.2630   -5.8300   -4.1310 hc        1 MOL      0.039184
    108 H49         5.9840   -5.7270   -2.3500 hc        1 MOL      0.039184
    109 N10         1.3310   -3.9110   -2.4150 n         1 MOL     -0.527314
    110 C35         0.0630   -3.1590   -2.7280 c3        1 MOL      0.272663
    111 C36        -0.8080   -3.3480   -1.5010 c         1 MOL      0.534249
    112 O17        -0.4000   -3.7920   -0.4460 o         1 MOL     -0.530470
    113 C37         0.4550   -1.6450   -2.9650 c3        1 MOL     -0.369996
    114 C38        -0.8470   -0.8820   -3.2310 c         1 MOL      0.720960
    115 N11        -1.1730    0.1990   -2.5750 n         1 MOL     -0.845119
    116 O18        -1.7120   -1.3600   -3.9060 o         1 MOL     -0.579316
    117 H50         1.9160   -3.5300   -1.6840 hn        1 MOL      0.298459
    118 H51        -0.4910   -3.5320   -3.5810 h1        1 MOL      0.063571
    119 H52         1.0750   -1.5140   -3.8450 hc        1 MOL      0.116896
    120 H53         0.9670   -1.1850   -2.1090 hc        1 MOL      0.116896
    121 H54        -0.5900    0.5620   -1.8310 hn        1 MOL      0.394562
    122 H55        -2.1130    0.5520   -2.6790 hn        1 MOL      0.394562
    123 N12        -2.0770   -2.9650   -1.6220 n         1 MOL     -0.582341
    124 C39        -3.1310   -2.9750   -0.5890 c3        1 MOL      0.479319
    125 C40        -4.5420   -2.8710   -1.0610 c         1 MOL      0.332438
    126 O19        -4.7560   -2.6640   -2.2370 o         1 MOL     -0.495409
    127 C41        -2.8240   -1.7900    0.3590 c3        1 MOL     -0.215994
    128 C42        -3.1870   -2.0690    1.7690 ca        1 MOL      0.037741
    129 C43        -4.0360   -1.1440    2.4230 ca        1 MOL     -0.138584
    130 C44        -2.5260   -3.0540    2.5740 ca        1 MOL     -0.138584
    131 C45        -4.5240   -1.4780    3.7010 ca        1 MOL     -0.264265
    132 C46        -2.9870   -3.3730    3.9020 ca        1 MOL     -0.264265
    133 C47        -4.0830   -2.6290    4.3640 ca        1 MOL      0.321446
    134 O20        -4.6220   -2.9370    5.5640 oh        1 MOL     -0.496985
    135 H56        -2.3280   -2.4900   -2.4780 hn        1 MOL      0.241245
    136 H57        -2.9990   -3.8300    0.0760 h1        1 MOL     -0.015639
    137 H58        -3.3800   -0.8950    0.0640 hc        1 MOL      0.083560
    138 H59        -1.7930   -1.5070    0.1630 hc        1 MOL      0.083560
    139 H60        -4.3910   -0.2450    1.9280 ha        1 MOL      0.175543
    140 H61        -1.7600   -3.7140    2.1860 ha        1 MOL      0.175543
    141 H62        -5.1430   -0.7580    4.2110 ha        1 MOL      0.149540
    142 H63        -2.6410   -4.2610    4.4050 ha        1 MOL      0.149540
    143 H64        -5.2430   -2.2820    5.9120 ho        1 MOL      0.349203
    144 N13        -5.5970   -3.0340   -0.2270 n         1 MOL     -0.453937
    145 C48        -7.0050   -3.0060   -0.7280 c3        1 MOL      0.019199
    146 C49        -7.9080   -2.1000    0.1590 c         1 MOL      0.649331
    147 O21        -8.6230   -2.5010    1.0660 o         1 MOL     -0.574007
    148 C50        -7.4670   -4.4890   -0.6840 c3        1 MOL      0.069531
    149 C51        -6.6020   -5.4050   -1.6020 c3        1 MOL     -0.114007
    150 C52        -7.5070   -6.6110   -2.0000 c         1 MOL      0.625708
    151 O22        -7.9620   -6.6470   -3.1640 o         1 MOL     -0.678535
    152 O23        -7.7810   -7.4430   -1.0630 o         1 MOL     -0.678535
    153 H65        -5.4170   -3.2470    0.7440 hn        1 MOL      0.285500
    154 H66        -7.0710   -2.6440   -1.7550 h1        1 MOL      0.158434
    155 H67        -8.5240   -4.6420   -0.9280 hc        1 MOL     -0.001825
    156 H68        -7.2930   -4.8050    0.3440 hc        1 MOL     -0.001825
    157 H69        -5.6260   -5.6200   -1.1630 hc        1 MOL      0.007299
    158 H70        -6.3660   -4.8840   -2.5320 hc        1 MOL      0.007299
    159 N14        -7.8510   -0.7690    0.0400 n         1 MOL     -0.872888
    160 C53        -7.0970    0.0470   -0.9820 c3        1 MOL      0.536047
    161 C54        -7.4970   -0.2530   -2.4350 c         1 MOL      0.355632
    162 O24        -8.7120   -0.5490   -2.6870 o         1 MOL     -0.530511
    163 C55        -7.1180    1.5340   -0.4820 c3        1 MOL     -0.490190
    164 C56        -6.3610    1.6620    0.8200 c3        1 MOL      0.426142
    165 C57        -6.0990    3.1420    1.1900 c         1 MOL      0.631412
    166 O25        -5.8780    3.4230    2.3580 o         1 MOL     -0.753651
    167 O26        -6.0700    4.1000    0.3370 o         1 MOL     -0.753651
    168 H71        -8.3440   -0.2220    0.7290 hn        1 MOL      0.430626
    169 H72        -6.0850   -0.3490   -0.8360 h1        1 MOL     -0.061340
    170 H73        -8.1550    1.8430   -0.3520 hc        1 MOL      0.075763
    171 H74        -6.5400    2.1260   -1.1860 hc        1 MOL      0.075763
    172 H75        -5.4310    1.1030    0.7630 hc        1 MOL     -0.110992
    173 H76        -6.9630    1.1740    1.5870 hc        1 MOL     -0.110992
    174 N15        -6.5970   -0.1170   -3.3780 n         1 MOL     -0.223867
    175 C58        -6.8250   -0.4060   -4.8090 c3        1 MOL     -0.311077
    176 H77        -5.8770   -0.6570   -5.2840 h1        1 MOL      0.134694
    177 H78        -7.5120   -1.2460   -4.9060 h1        1 MOL      0.134694
    178 H79        -7.2530    0.4720   -5.2940 h1        1 MOL      0.134694
    179 H80        -5.7010    0.2490   -3.0780 hn        1 MOL      0.236360
    180 Ca1        -4.7450    5.7350    1.9040 Ca        1 MOL      1.596082
    181 O27        -4.1260    7.8300    3.6110 oh        1 MOL     -0.759826
    182 H81        -4.4070    8.6890    3.9200 ho        1 MOL      0.371431
    183 H82        -3.1790    7.9340    3.4380 ho        1 MOL      0.371431
    184 O28        -6.7160    6.0370    3.8680 oh        1 MOL     -0.759826
    185 H83        -7.2390    6.8380    3.9860 ho        1 MOL      0.371431
    186 H84        -7.2120    5.3560    4.3280 ho        1 MOL      0.371431
    187 O29        -6.0830    8.0650    1.5150 oh        1 MOL     -0.759826
    188 H85        -6.5790    8.6060    0.8840 ho        1 MOL      0.371431
    189 H86        -6.3200    8.4300    2.3730 ho        1 MOL      0.371431
    190 O30        -3.8350    4.7450    4.3720 oh        1 MOL     -0.759826
    191 H87        -3.5750    3.8300    4.2130 ho        1 MOL      0.371431
    192 H88        -3.8300    4.8270    5.3240 ho        1 MOL      0.371431
@<TRIPOS>BOND
     1    1    2 1   
     2    1    4 1   
     3    1    5 1   
     4    1    6 1   
     5    2    3 2   
     6    2    7 1   
     7    7    8 1   
     8    7   15 1   
     9    8    9 1   
    10    8   11 1   
    11    8   16 1   
    12    9   10 2   
    13    9   19 1   
    14   11   12 1   
    15   11   17 1   
    16   11   18 1   
    17   12   13 1   
    18   12   14 1   
    19   19   20 1   
    20   19   27 1   
    21   20   21 1   
    22   20   23 1   
    23   20   28 1   
    24   21   22 2   
    25   21   38 1   
    26   23   24 1   
    27   23   25 1   
    28   23   29 1   
    29   24   26 1   
    30   24   30 1   
    31   24   31 1   
    32   25   32 1   
    33   25   33 1   
    34   25   34 1   
    35   26   35 1   
    36   26   36 1   
    37   26   37 1   
    38   38   39 1   
    39   38   46 1   
    40   39   40 1   
    41   39   42 1   
    42   39   47 1   
    43   40   41 2   
    44   40   50 1   
    45   42   43 1   
    46   42   48 1   
    47   42   49 1   
    48   43   44 1   
    49   43   45 1   
    50   50   51 1   
    51   50   54 1   
    52   51   52 1   
    53   51   55 1   
    54   51   56 1   
    55   52   53 2   
    56   52   57 1   
    57   57   58 1   
    58   57   65 1   
    59   58   59 1   
    60   58   61 1   
    61   58   66 1   
    62   59   60 2   
    63   59   69 1   
    64   61   62 1   
    65   61   67 1   
    66   61   68 1   
    67   62   63 1   
    68   62   64 1   
    69   69   70 1   
    70   69   73 1   
    71   70   71 1   
    72   70   74 1   
    73   70   75 1   
    74   71   72 2   
    75   71   76 1   
    76   76   77 1   
    77   76   85 1   
    78   77   78 1   
    79   77   80 1   
    80   77   86 1   
    81   78   79 2   
    82   78   93 1   
    83   80   81 1   
    84   80   87 1   
    85   80   88 1   
    86   81   82 1   
    87   81   89 1   
    88   81   90 1   
    89   82   83 1   
    90   82   84 2   
    91   83   91 1   
    92   83   92 1   
    93   93   94 1   
    94   93  100 1   
    95   94   95 1   
    96   94   97 1   
    97   94  101 1   
    98   95   96 2   
    99   95  109 1   
   100   97   98 1   
   101   97   99 1   
   102   97  102 1   
   103   98  103 1   
   104   98  104 1   
   105   98  105 1   
   106   99  106 1   
   107   99  107 1   
   108   99  108 1   
   109  109  110 1   
   110  109  117 1   
   111  110  111 1   
   112  110  113 1   
   113  110  118 1   
   114  111  112 2   
   115  111  123 1   
   116  113  114 1   
   117  113  119 1   
   118  113  120 1   
   119  114  115 1   
   120  114  116 2   
   121  115  121 1   
   122  115  122 1   
   123  123  124 1   
   124  123  135 1   
   125  124  125 1   
   126  124  127 1   
   127  124  136 1   
   128  125  126 2   
   129  125  144 1   
   130  127  128 1   
   131  127  137 1   
   132  127  138 1   
   133  128  129 ar  
   134  128  130 ar  
   135  129  131 ar  
   136  129  139 1   
   137  130  132 ar  
   138  130  140 1   
   139  131  133 ar  
   140  131  141 1   
   141  132  133 ar  
   142  132  142 1   
   143  133  134 1   
   144  134  143 1   
   145  144  145 1   
   146  144  153 1   
   147  145  146 1   
   148  145  148 1   
   149  145  154 1   
   150  146  147 2   
   151  146  159 1   
   152  148  149 1   
   153  148  155 1   
   154  148  156 1   
   155  149  150 1   
   156  149  157 1   
   157  149  158 1   
   158  150  151 1   
   159  150  152 1   
   160  159  160 1   
   161  159  168 1   
   162  160  161 1   
   163  160  163 1   
   164  160  169 1   
   165  161  162 2   
   166  161  174 1   
   167  163  164 1   
   168  163  170 1   
   169  163  171 1   
   170  164  165 1   
   171  164  172 1   
   172  164  173 1   
   173  165  166 1   
   174  165  167 1   
   175  174  175 1   
   176  174  179 1   
   177  175  176 1   
   178  175  177 1   
   179  175  178 1   
   180  181  182 1   
   181  181  183 1   
   182  184  185 1   
   183  184  186 1   
   184  187  188 1   
   185  187  189 1   
   186  190  191 1   
   187  190  192 1   
@<TRIPOS>SUBSTRUCTURE
     1 MOL         1 TEMP              0 ****  ****    0 ROOT
