@<TRIPOS>MOLECULE
MOL
  179   176     1     0     0
SMALL
resp


@<TRIPOS>ATOM
      1 C1          1.2180   -4.1430    6.2040 c3        1 MOL     -0.382634
      2 C2          1.2950   -3.5730    4.7340 c         1 MOL      0.683581
      3 O1          0.2550   -3.1250    4.1750 o         1 MOL     -0.607868
      4 H1          2.0660   -3.7750    6.7810 hc        1 MOL      0.118893
      5 H2          0.2900   -3.8140    6.6730 hc        1 MOL      0.118893
      6 H3          1.2440   -5.2320    6.1740 hc        1 MOL      0.118893
      7 N1          2.4660   -3.4610    4.1240 n         1 MOL     -0.588111
      8 C3          2.6610   -2.9690    2.7560 c3        1 MOL      0.043605
      9 C4          3.0250   -4.1430    1.8290 c         1 MOL      0.543991
     10 O2          3.8750   -4.9370    2.1750 o         1 MOL     -0.534404
     11 C5          3.6120   -1.8510    2.6320 c3        1 MOL     -0.034988
     12 C6          3.6490   -1.1890    1.3000 c         1 MOL      0.296485
     13 O3          4.0840   -0.0220    1.2220 o         1 MOL     -0.588891
     14 O4          3.1750   -1.7390    0.2620 o         1 MOL     -0.588891
     15 H4          3.2430   -3.8400    4.6480 hn        1 MOL      0.335768
     16 H5          1.6510   -2.6660    2.4510 h1        1 MOL      0.060950
     17 H6          4.5900   -2.2940    2.8360 hc        1 MOL      0.050587
     18 H7          3.3670   -1.0120    3.2860 hc        1 MOL      0.050587
     19 N2          2.3160   -4.1590    0.6910 n         1 MOL     -0.194809
     20 C7          2.3740   -5.2230   -0.2460 c3        1 MOL     -0.163023
     21 C8          3.4260   -5.0540   -1.3230 c         1 MOL      0.465085
     22 O5          3.6200   -5.9630   -2.1600 o         1 MOL     -0.583101
     23 C9          0.9780   -5.4470   -0.8800 c3        1 MOL      0.374625
     24 C10        -0.1190   -6.0640    0.0320 c3        1 MOL     -0.280139
     25 C11        -1.4770   -5.9060   -0.6420 c3        1 MOL      0.181014
     26 C12        -1.5840   -6.5310   -2.0720 c3        1 MOL     -0.138591
     27 N3         -2.8570   -6.1080   -2.7600 n4        1 MOL     -0.328439
     28 H8          1.7530   -3.3260    0.6140 hn        1 MOL      0.166637
     29 H9          2.5470   -6.1440    0.3240 h1        1 MOL      0.113158
     30 H10         1.0900   -6.1630   -1.6950 hc        1 MOL     -0.101679
     31 H11         0.6290   -4.5170   -1.3330 hc        1 MOL     -0.101679
     32 H12        -0.1550   -5.5050    0.9640 hc        1 MOL      0.077665
     33 H13         0.0350   -7.1450    0.1140 hc        1 MOL      0.077665
     34 H14        -1.7480   -4.8530   -0.6030 hc        1 MOL      0.005435
     35 H15        -2.1780   -6.4030    0.0220 hc        1 MOL      0.005435
     36 H16        -1.4660   -7.6120   -2.0700 hx        1 MOL      0.137735
     37 H17        -0.7760   -6.1160   -2.6870 hx        1 MOL      0.137735
     38 H18        -2.6510   -6.1950   -3.7420 hn        1 MOL      0.293512
     39 H19        -3.6140   -6.7650   -2.6050 hn        1 MOL      0.293512
     40 H20        -3.1580   -5.1550   -2.6090 hn        1 MOL      0.293512
     41 N4          4.1110   -3.9740   -1.3560 n         1 MOL     -0.006170
     42 C13         5.2250   -3.6370   -2.2620 c3        1 MOL     -0.059101
     43 C14         6.3570   -2.9810   -1.5110 c         1 MOL      0.360927
     44 O6          7.4940   -3.0050   -2.0060 o         1 MOL     -0.492040
     45 C15         4.8100   -2.7610   -3.3890 c3        1 MOL     -0.051577
     46 C16         4.0190   -1.6220   -2.9060 c         1 MOL      0.745705
     47 O7          2.7680   -1.6460   -2.9970 o         1 MOL     -0.805519
     48 O8          4.5610   -0.6820   -2.2620 o         1 MOL     -0.805519
     49 H21         3.9620   -3.4180   -0.5250 hn        1 MOL     -0.120603
     50 H22         5.5110   -4.5710   -2.7480 h1        1 MOL      0.109575
     51 H23         4.1490   -3.3240   -4.0540 hc        1 MOL      0.030275
     52 H24         5.6810   -2.3870   -3.9300 hc        1 MOL      0.030275
     53 N5          6.1010   -2.3540   -0.3680 n         1 MOL     -0.186770
     54 C17         7.1020   -1.8370    0.5770 c3        1 MOL     -0.408833
     55 C18         7.4360   -0.2960    0.3840 c         1 MOL      0.577316
     56 O9          8.2290    0.3540    1.0850 o         1 MOL     -0.554859
     57 H25         5.1360   -2.1090   -0.2470 hn        1 MOL      0.405522
     58 H26         8.0250   -2.3800    0.3900 h1        1 MOL      0.181522
     59 H27         6.7060   -1.8870    1.5860 h1        1 MOL      0.181522
     60 N6          6.6710    0.2880   -0.5360 n         1 MOL     -0.257971
     61 C19         6.8270    1.6660   -1.1390 c3        1 MOL     -0.104353
     62 C20         5.6370    2.5900   -0.9480 c         1 MOL      0.794828
     63 O10         4.4420    2.1440   -0.8230 o         1 MOL     -0.747966
     64 C21         7.1400    1.5380   -2.6860 c3        1 MOL     -0.335827
     65 C22         8.4410    0.8210   -2.9900 c         1 MOL      0.716685
     66 N7          8.6020   -0.0190   -3.9480 n         1 MOL     -0.853987
     67 O11         9.3620    0.9450   -2.2690 o         1 MOL     -0.536873
     68 H28         5.9710   -0.2770   -0.9990 hn        1 MOL      0.354129
     69 H29         7.7190    2.1170   -0.7080 h1        1 MOL      0.088696
     70 H30         7.3070    2.5330   -3.0830 hc        1 MOL      0.068555
     71 H31         6.3240    1.0050   -3.1700 hc        1 MOL      0.068555
     72 H32         7.7390   -0.1530   -4.4480 hn        1 MOL      0.404556
     73 H33         9.5270   -0.4250   -4.0320 hn        1 MOL      0.404556
     74 N8          5.8340    3.8680   -0.9120 n         1 MOL     -0.538946
     75 C23         4.7970    4.9430   -0.9750 c3        1 MOL     -0.004127
     76 C24         3.7200    4.9090    0.1280 c         1 MOL      0.594180
     77 O12         3.9690    4.6910    1.3260 o         1 MOL     -0.490737
     78 H34         6.7900    4.1400   -1.0900 hn        1 MOL      0.347838
     79 H35         4.3120    4.9330   -1.9490 h1        1 MOL      0.081137
     80 H36         5.2890    5.9150   -0.9520 h1        1 MOL      0.081137
     81 N9          2.4660    5.1570   -0.2560 n         1 MOL     -0.652618
     82 C25         1.2570    4.7750    0.5410 c3        1 MOL      0.383904
     83 C26         1.1050    3.2870    0.9740 c         1 MOL      0.469606
     84 O13         1.6900    2.4440    0.3050 o         1 MOL     -0.502971
     85 C27        -0.0080    5.3350   -0.1840 c3        1 MOL     -0.246150
     86 C28         0.0480    6.7990   -0.2400 ca        1 MOL      0.170659
     87 C29         0.0130    7.4540   -1.4630 ca        1 MOL     -0.249442
     88 C30         0.2520    7.5500    0.9560 ca        1 MOL     -0.249442
     89 C31        -0.0130    8.8640   -1.4880 ca        1 MOL     -0.148534
     90 C32         0.1830    8.9690    0.8910 ca        1 MOL     -0.148534
     91 C33        -0.0200    9.5810   -0.3270 ca        1 MOL      0.232018
     92 O14        -0.1670   10.9810   -0.3630 oh        1 MOL     -0.461564
     93 H37         2.2110    5.4610   -1.1810 hn        1 MOL      0.293731
     94 H38         1.3730    5.2640    1.5040 h1        1 MOL      0.024461
     95 H39        -0.8400    4.9890    0.4300 hc        1 MOL      0.067963
     96 H40        -0.0690    4.9170   -1.1870 hc        1 MOL      0.067963
     97 H41        -0.0200    6.8570   -2.3740 ha        1 MOL      0.140015
     98 H42         0.2480    7.0800    1.9340 ha        1 MOL      0.140015
     99 H43        -0.0310    9.3300   -2.4620 ha        1 MOL      0.141200
    100 H44         0.0970    9.6130    1.7530 ha        1 MOL      0.141200
    101 H45        -0.1910   11.2910   -1.2650 ho        1 MOL      0.345534
    102 N10         0.3870    3.0830    2.0520 n         1 MOL     -0.538723
    103 C34         0.2390    1.8370    2.8280 c3        1 MOL      0.064227
    104 C35        -0.0330    0.6070    1.9400 c         1 MOL      0.393029
    105 O15         0.8390    0.0460    1.2800 o         1 MOL     -0.262925
    106 C36         1.3640    1.5630    3.9100 c3        1 MOL      0.123596
    107 C37         1.2550    0.2620    4.7230 c3        1 MOL     -0.104168
    108 C38         1.5340    2.7790    4.8960 c3        1 MOL     -0.360107
    109 C39        -0.0650    0.1760    5.5820 c3        1 MOL     -0.199585
    110 H46         0.1980    3.9180    2.5760 hn        1 MOL      0.311611
    111 H47        -0.7410    2.0900    3.2340 h1        1 MOL      0.063302
    112 H48         2.2670    1.4260    3.3160 hc        1 MOL      0.066959
    113 H49         2.0900    0.1250    5.4120 hc        1 MOL      0.078827
    114 H50         1.3460   -0.6020    4.0640 hc        1 MOL      0.078827
    115 H51         0.5450    3.1360    5.1830 hc        1 MOL      0.098471
    116 H52         2.1040    2.4410    5.7590 hc        1 MOL      0.098471
    117 H53         2.0350    3.5620    4.3260 hc        1 MOL      0.098471
    118 H54        -0.2070   -0.8140    6.0110 hc        1 MOL      0.051987
    119 H55        -0.0560    0.9690    6.3300 hc        1 MOL      0.051987
    120 H56        -0.9570    0.2550    4.9510 hc        1 MOL      0.051987
    121 N11        -1.3240    0.1400    1.8160 n         1 MOL     -0.510908
    122 C40        -1.6970   -1.0260    0.9520 c3        1 MOL      0.058908
    123 C41        -3.0980   -0.9830    0.2950 c         1 MOL      0.592636
    124 O16        -3.3200   -1.7870   -0.5690 o         1 MOL     -0.540115
    125 C42        -1.4320   -2.3890    1.6530 c3        1 MOL      0.541436
    126 O17        -2.0200   -2.5300    2.9300 oh        1 MOL     -0.685219
    127 H57        -2.0380    0.6420    2.3260 hn        1 MOL      0.293241
    128 H58        -1.0460   -1.0420    0.0720 h1        1 MOL      0.016821
    129 H59        -0.3500   -2.5200    1.6620 h1        1 MOL     -0.115686
    130 H60        -1.8610   -3.1040    0.9440 h1        1 MOL     -0.115686
    131 H61        -1.3350   -2.7490    3.5710 ho        1 MOL      0.420562
    132 N12        -3.9800   -0.0450    0.6400 n         1 MOL     -0.487644
    133 C43        -5.3270    0.1740    0.0400 c3        1 MOL      0.009433
    134 C44        -5.2290    0.4030   -1.5180 c         1 MOL      0.580766
    135 O18        -4.2460    0.8380   -2.0790 o         1 MOL     -0.588942
    136 C45        -6.1190    1.1970    0.8450 c3        1 MOL     -0.182532
    137 H62        -3.6610    0.6670    1.2860 hn        1 MOL      0.275540
    138 H63        -5.7730   -0.8090   -0.1210 h1        1 MOL      0.101985
    139 H64        -5.5430    2.0780    1.1320 hc        1 MOL      0.076940
    140 H65        -7.0080    1.5260    0.3020 hc        1 MOL      0.076940
    141 H66        -6.3730    0.7630    1.8080 hc        1 MOL      0.076940
    142 N13        -6.2460    0.1180   -2.2850 n         1 MOL     -0.496704
    143 C46        -7.5360   -0.4520   -2.0890 c3        1 MOL      0.285136
    144 C47        -8.5900    0.4230   -2.7690 c         1 MOL      0.448442
    145 O19        -8.4370    0.9740   -3.9010 o         1 MOL     -0.567796
    146 C48        -7.6180   -1.8250   -2.6960 c3        1 MOL     -0.366066
    147 H67        -6.0690    0.3470   -3.2550 hn        1 MOL      0.285797
    148 H68        -7.7250   -0.6050   -1.0300 h1        1 MOL      0.056563
    149 H69        -8.6660   -2.1150   -2.6330 hc        1 MOL      0.102994
    150 H70        -7.2820   -1.8100   -3.7290 hc        1 MOL      0.102994
    151 H71        -6.9030   -2.4610   -2.1720 hc        1 MOL      0.102994
    152 N14        -9.7080    0.7170   -2.1590 n         1 MOL     -0.383329
    153 C49       -10.1990    0.1940   -0.8560 c3        1 MOL     -0.083688
    154 C50        -9.7830    1.0260    0.3310 c         1 MOL      0.359493
    155 O20        -9.6390    0.4900    1.4140 o         1 MOL     -0.473851
    156 C51       -11.7330    0.0540   -0.8600 c3        1 MOL      0.581628
    157 C52       -12.2270   -0.9120    0.2310 c3        1 MOL     -0.271674
    158 C53       -12.0710   -2.4590   -0.1000 c         1 MOL      0.674565
    159 O21       -10.9930   -2.8430   -0.5940 o         1 MOL     -0.658187
    160 O22       -13.0400   -3.2620   -0.0220 o         1 MOL     -0.658187
    161 H72       -10.4750    1.1340   -2.6690 hn        1 MOL      0.278501
    162 H73        -9.8500   -0.8130   -0.6490 h1        1 MOL      0.030359
    163 H74       -12.1020   -0.2100   -1.8480 hc        1 MOL     -0.144997
    164 H75       -12.1740    1.0480   -0.7070 hc        1 MOL     -0.144997
    165 H76       -13.2880   -0.7400    0.3940 hc        1 MOL      0.022694
    166 H77       -11.6050   -0.7110    1.1020 hc        1 MOL      0.022694
    167 N15        -9.7400    2.3410    0.1740 n         1 MOL     -0.227610
    168 C54        -9.2030    3.2700    1.2580 c3        1 MOL     -0.271072
    169 H78        -8.2050    3.6100    0.9840 h1        1 MOL      0.118738
    170 H79        -9.8650    4.1300    1.3600 h1        1 MOL      0.118738
    171 H80        -9.1560    2.7340    2.2060 h1        1 MOL      0.118738
    172 H81        -9.8750    2.7570   -0.7400 hn        1 MOL      0.216354
    173 Ca1         2.5290    0.3550   -1.0700 Ca        1 MOL      1.779905
    174 O23         0.6470   -1.8090   -1.3670 oh        1 MOL     -0.959484
    175 H82        -0.1750   -2.2320   -1.6230 ho        1 MOL      0.461426
    176 H83         1.2850   -2.1330   -1.9920 ho        1 MOL      0.461426
    177 O24         0.1340    1.2730   -2.1430 oh        1 MOL     -0.959484
    178 H84        -0.1010    2.0290   -2.6700 ho        1 MOL      0.461426
    179 H85        -0.5330    0.6250   -2.3390 ho        1 MOL      0.461426
@<TRIPOS>BOND
     1    1    2 1   
     2    1    4 1   
     3    1    5 1   
     4    1    6 1   
     5    2    3 2   
     6    2    7 1   
     7    7    8 1   
     8    7   15 1   
     9    8    9 1   
    10    8   11 1   
    11    8   16 1   
    12    9   10 2   
    13    9   19 1   
    14   11   12 1   
    15   11   17 1   
    16   11   18 1   
    17   12   13 1   
    18   12   14 1   
    19   19   20 1   
    20   19   28 1   
    21   20   21 1   
    22   20   23 1   
    23   20   29 1   
    24   21   22 2   
    25   21   41 1   
    26   23   24 1   
    27   23   30 1   
    28   23   31 1   
    29   24   25 1   
    30   24   32 1   
    31   24   33 1   
    32   25   26 1   
    33   25   34 1   
    34   25   35 1   
    35   26   27 1   
    36   26   36 1   
    37   26   37 1   
    38   27   38 1   
    39   27   39 1   
    40   27   40 1   
    41   41   42 1   
    42   41   49 1   
    43   42   43 1   
    44   42   45 1   
    45   42   50 1   
    46   43   44 2   
    47   43   53 1   
    48   45   46 1   
    49   45   51 1   
    50   45   52 1   
    51   46   47 1   
    52   46   48 1   
    53   53   54 1   
    54   53   57 1   
    55   54   55 1   
    56   54   58 1   
    57   54   59 1   
    58   55   56 2   
    59   55   60 1   
    60   60   61 1   
    61   60   68 1   
    62   61   62 1   
    63   61   64 1   
    64   61   69 1   
    65   62   63 2   
    66   62   74 1   
    67   64   65 1   
    68   64   70 1   
    69   64   71 1   
    70   65   66 1   
    71   65   67 2   
    72   66   72 1   
    73   66   73 1   
    74   74   75 1   
    75   74   78 1   
    76   75   76 1   
    77   75   79 1   
    78   75   80 1   
    79   76   77 2   
    80   76   81 1   
    81   81   82 1   
    82   81   93 1   
    83   82   83 1   
    84   82   85 1   
    85   82   94 1   
    86   83   84 2   
    87   83  102 1   
    88   85   86 1   
    89   85   95 1   
    90   85   96 1   
    91   86   87 ar  
    92   86   88 ar  
    93   87   89 ar  
    94   87   97 1   
    95   88   90 ar  
    96   88   98 1   
    97   89   91 ar  
    98   89   99 1   
    99   90   91 ar  
   100   90  100 1   
   101   91   92 1   
   102   92  101 1   
   103  102  103 1   
   104  102  110 1   
   105  103  104 1   
   106  103  106 1   
   107  103  111 1   
   108  104  105 2   
   109  104  121 1   
   110  106  107 1   
   111  106  108 1   
   112  106  112 1   
   113  107  109 1   
   114  107  113 1   
   115  107  114 1   
   116  108  115 1   
   117  108  116 1   
   118  108  117 1   
   119  109  118 1   
   120  109  119 1   
   121  109  120 1   
   122  121  122 1   
   123  121  127 1   
   124  122  123 1   
   125  122  125 1   
   126  122  128 1   
   127  123  124 2   
   128  123  132 1   
   129  125  126 1   
   130  125  129 1   
   131  125  130 1   
   132  126  131 1   
   133  132  133 1   
   134  132  137 1   
   135  133  134 1   
   136  133  136 1   
   137  133  138 1   
   138  134  135 2   
   139  134  142 1   
   140  136  139 1   
   141  136  140 1   
   142  136  141 1   
   143  142  143 1   
   144  142  147 1   
   145  143  144 1   
   146  143  146 1   
   147  143  148 1   
   148  144  145 2   
   149  144  152 1   
   150  146  149 1   
   151  146  150 1   
   152  146  151 1   
   153  152  153 1   
   154  152  161 1   
   155  153  154 1   
   156  153  156 1   
   157  153  162 1   
   158  154  155 2   
   159  154  167 1   
   160  156  157 1   
   161  156  163 1   
   162  156  164 1   
   163  157  158 1   
   164  157  165 1   
   165  157  166 1   
   166  158  159 1   
   167  158  160 1   
   168  167  168 1   
   169  167  172 1   
   170  168  169 1   
   171  168  170 1   
   172  168  171 1   
   173  174  175 1   
   174  174  176 1   
   175  177  178 1   
   176  177  179 1   
@<TRIPOS>SUBSTRUCTURE
     1 MOL         1 TEMP              0 ****  ****    0 ROOT
