@<TRIPOS>MOLECULE
MOL
  195   189     1     0     0
SMALL
resp


@<TRIPOS>ATOM
      1 C1         -4.7870   -3.2010    3.7260 c3        1 MOL     -0.179407
      2 C2         -3.9710   -3.2590    2.4620 c         1 MOL      0.575138
      3 O1         -2.8210   -2.9230    2.3690 o         1 MOL     -0.503704
      4 H1         -5.1970   -4.1880    3.9390 hc        1 MOL      0.042186
      5 H2         -4.1530   -2.8850    4.5540 hc        1 MOL      0.042186
      6 H3         -5.6030   -2.4890    3.6000 hc        1 MOL      0.042186
      7 N1         -4.4640   -3.7040    1.3400 n         1 MOL     -0.321700
      8 C3         -3.8720   -3.6110    0.0120 c3        1 MOL     -0.047219
      9 C4         -2.3440   -3.6800   -0.1840 c         1 MOL      0.792283
     10 O2         -1.7880   -2.8670   -0.9640 o         1 MOL     -0.578039
     11 C5         -4.3960   -2.3700   -0.7830 c3        1 MOL     -0.195156
     12 C6         -5.8740   -2.0930   -0.7740 c         1 MOL      0.601705
     13 O3         -6.4970   -1.5550    0.1810 o         1 MOL     -0.676302
     14 O4         -6.6020   -2.4710   -1.7380 o         1 MOL     -0.676302
     15 H4         -5.4440   -3.9490    1.3900 hn        1 MOL      0.142391
     16 H5         -4.3400   -4.3560   -0.6440 h1        1 MOL      0.082465
     17 H6         -4.0800   -2.4290   -1.8240 hc        1 MOL      0.097960
     18 H7         -3.9440   -1.5140   -0.2900 hc        1 MOL      0.097960
     19 N2         -1.7010   -4.5800    0.5220 n         1 MOL     -0.752048
     20 C7         -0.2620   -4.7450    0.5970 c3        1 MOL      0.010778
     21 C8          0.2490   -5.4770   -0.6240 c         1 MOL      0.432201
     22 O5         -0.4210   -6.2880   -1.2750 o         1 MOL     -0.566865
     23 C9          0.1390   -5.6070    1.8670 c3        1 MOL      0.462854
     24 C10        -0.2200   -7.0730    1.7610 c3        1 MOL     -0.008462
     25 C11        -0.3390   -4.9280    3.1920 c3        1 MOL     -0.411863
     26 C12         0.3920   -7.8400    2.9360 c3        1 MOL     -0.034220
     27 H8         -2.2770   -5.0430    1.2130 hn        1 MOL      0.295241
     28 H9          0.1380   -3.7370    0.6350 h1        1 MOL      0.117075
     29 H10         1.2250   -5.6040    1.9040 hc        1 MOL     -0.005019
     30 H11         0.2070   -7.5960    0.9070 hc        1 MOL      0.004838
     31 H12        -1.3020   -7.1740    1.8540 hc        1 MOL      0.004838
     32 H13        -0.3180   -3.8670    2.9450 hc        1 MOL      0.089511
     33 H14        -1.3430   -5.2950    3.3680 hc        1 MOL      0.089511
     34 H15         0.3790   -5.1310    3.9890 hc        1 MOL      0.089511
     35 H16         1.4170   -7.5460    3.1570 hc        1 MOL     -0.014498
     36 H17        -0.2160   -7.6060    3.8090 hc        1 MOL     -0.014498
     37 H18         0.3590   -8.8990    2.7010 hc        1 MOL     -0.014498
     38 N3          1.5270   -5.3590   -1.0760 n         1 MOL     -0.353596
     39 C13         2.5730   -4.5510   -0.4130 c3        1 MOL      0.104016
     40 C14         2.9120   -3.2660   -1.1230 c         1 MOL      0.601860
     41 O6          3.7890   -2.4850   -0.6740 o         1 MOL     -0.396485
     42 C15         3.7890   -5.4160   -0.2990 c3        1 MOL     -0.224181
     43 C16         4.5270   -5.8510   -1.5830 c         1 MOL      0.778349
     44 O7          3.9020   -5.8730   -2.6320 o         1 MOL     -0.727036
     45 O8          5.7410   -6.1870   -1.5410 o         1 MOL     -0.727036
     46 H19         1.7790   -5.9510   -1.8580 hn        1 MOL      0.280907
     47 H20         2.2400   -4.2360    0.5780 h1        1 MOL     -0.175019
     48 H21         3.4640   -6.3630    0.1310 hc        1 MOL      0.015272
     49 H22         4.5180   -4.9760    0.3850 hc        1 MOL      0.015272
     50 N4          2.1750   -2.9320   -2.2020 n         1 MOL     -0.588418
     51 C17         2.2970   -1.6760   -3.0140 c3        1 MOL      0.097294
     52 C18         3.7710   -1.5630   -3.5820 c         1 MOL      0.371121
     53 O9          4.3900   -2.5600   -3.8510 o         1 MOL     -0.413831
     54 H23         1.4030   -3.5640   -2.3460 hn        1 MOL      0.354165
     55 H24         2.0870   -0.7990   -2.3950 h1        1 MOL      0.052503
     56 H25         1.5070   -1.5470   -3.7580 h1        1 MOL      0.052503
     57 N5          4.3700   -0.3240   -3.6870 n         1 MOL     -0.502853
     58 C19         5.6960    0.0300   -4.1320 c3        1 MOL      0.313937
     59 C20         6.7160   -0.3930   -3.1000 c         1 MOL      0.323774
     60 O10         7.8690    0.0900   -3.0930 o         1 MOL     -0.570181
     61 C21         5.8190    1.5520   -4.4280 c3        1 MOL     -0.468569
     62 C22         5.3750    2.4180   -3.3110 c         1 MOL      0.905543
     63 O11         5.1390    1.9440   -2.1740 o         1 MOL     -0.726839
     64 O12         5.1840    3.6370   -3.5060 o         1 MOL     -0.726839
     65 H26         3.7010    0.4270   -3.6140 hn        1 MOL      0.267184
     66 H27         5.9590   -0.5750   -4.9930 h1        1 MOL      0.013688
     67 H28         5.2470    1.7270   -5.3350 hc        1 MOL      0.094768
     68 H29         6.8480    1.6820   -4.7450 hc        1 MOL      0.094768
     69 N6          6.3040   -1.1910   -2.0930 n         1 MOL     -0.089771
     70 C23         7.2280   -1.8060   -1.1640 c3        1 MOL     -0.142591
     71 C24         7.6860   -0.8980   -0.0690 c         1 MOL      0.494104
     72 O13         8.2600   -1.3070    0.9660 o         1 MOL     -0.597358
     73 H30         5.3120   -1.3710   -2.0120 hn        1 MOL      0.091721
     74 H31         8.0530   -2.2270   -1.7330 h1        1 MOL      0.105039
     75 H32         6.6620   -2.6500   -0.7550 h1        1 MOL      0.105039
     76 N7          7.5520    0.4190   -0.2390 n         1 MOL     -0.358001
     77 C25         7.9260    1.5230    0.6610 c3        1 MOL      0.063779
     78 C26         7.3130    1.5280    2.0710 c         1 MOL      0.419443
     79 O14         7.9100    2.1970    2.8980 o         1 MOL     -0.506985
     80 C27         9.3280    2.0620    0.4550 c3        1 MOL      0.382436
     81 C28         9.7880    2.4090   -0.9300 c3        1 MOL     -0.293459
     82 C29         9.1620    3.6400   -1.5430 c         1 MOL      0.630210
     83 N8          9.2940    3.7750   -2.8710 n         1 MOL     -0.839202
     84 O15         8.4720    4.3890   -0.8280 o         1 MOL     -0.520727
     85 H33         7.1130    0.7210   -1.0950 hn        1 MOL      0.292252
     86 H34         7.3130    2.2660    0.1490 h1        1 MOL      0.072196
     87 H35        10.0640    1.3710    0.8770 hc        1 MOL     -0.088174
     88 H36         9.4240    2.9250    1.1080 hc        1 MOL     -0.088174
     89 H37         9.5410    1.5420   -1.5510 hc        1 MOL      0.057449
     90 H38        10.8750    2.5010   -0.9100 hc        1 MOL      0.057449
     91 H39         9.8450    3.1200   -3.4090 hn        1 MOL      0.372322
     92 H40         8.8270    4.5380   -3.3490 hn        1 MOL      0.372322
     93 N9          6.1710    0.8850    2.3120 n         1 MOL     -0.164297
     94 C30         5.4640    0.8360    3.6420 c3        1 MOL     -0.449443
     95 C31         3.8880    0.6640    3.6730 c         1 MOL      0.664710
     96 O16         3.2920    0.6940    4.6940 o         1 MOL     -0.524863
     97 C32         6.0710   -0.2680    4.6070 c3        1 MOL      0.441620
     98 C33         6.5120   -1.4840    3.8250 c3        1 MOL     -0.499676
     99 C34         7.1410    0.2640    5.5360 c3        1 MOL     -0.499676
    100 H41         5.6770    0.4530    1.5480 hn        1 MOL      0.168567
    101 H42         5.5880    1.8080    4.1240 h1        1 MOL      0.196320
    102 H43         5.3250   -0.5980    5.3400 hc        1 MOL     -0.028133
    103 H44         7.4490   -1.1910    3.3390 hc        1 MOL      0.115214
    104 H45         6.5580   -2.2970    4.5420 hc        1 MOL      0.115214
    105 H46         5.7450   -1.6470    3.0710 hc        1 MOL      0.115214
    106 H47         7.9840    0.4710    4.8790 hc        1 MOL      0.115214
    107 H48         6.9430    1.1940    6.0670 hc        1 MOL      0.115214
    108 H49         7.4480   -0.5100    6.2440 hc        1 MOL      0.115214
    109 N10         3.2510    0.6410    2.4480 n         1 MOL     -0.512199
    110 C35         1.8080    0.3960    2.2190 c3        1 MOL      0.117238
    111 C36         1.3060    1.3940    1.1180 c         1 MOL      0.681031
    112 O17         2.0600    2.1970    0.5960 o         1 MOL     -0.500112
    113 C37         1.6080   -1.0580    1.7710 c3        1 MOL     -0.193750
    114 C38         2.0870   -2.0840    2.8110 c         1 MOL      0.432872
    115 N11         3.0630   -2.8960    2.5140 n         1 MOL     -0.301396
    116 O18         1.6310   -2.1620    3.9540 o         1 MOL     -0.535974
    117 H50         3.7870    0.5630    1.5900 hn        1 MOL      0.304247
    118 H51         1.2360    0.4960    3.1410 h1        1 MOL      0.085956
    119 H52         2.2080   -1.1760    0.8650 hc        1 MOL      0.053944
    120 H53         0.5630   -1.2520    1.5280 hc        1 MOL      0.053944
    121 H54         3.6740   -2.7390    1.7330 hn        1 MOL      0.234231
    122 H55         3.3280   -3.4830    3.2940 hn        1 MOL      0.234231
    123 N12        -0.0580    1.3930    0.9160 n         1 MOL     -0.843516
    124 C39        -0.7490    2.2430   -0.0480 c3        1 MOL      0.570180
    125 C40        -1.7340    3.2450    0.6240 c         1 MOL      0.571577
    126 O19        -2.4450    2.8380    1.5350 o         1 MOL     -0.632142
    127 C41        -1.4520    1.2980   -1.0840 c3        1 MOL     -0.314088
    128 C42        -2.0010    2.0780   -2.2220 ca        1 MOL      0.221627
    129 C43        -3.3970    2.1610   -2.4360 ca        1 MOL     -0.312835
    130 C44        -1.0840    2.6420   -3.1450 ca        1 MOL     -0.312835
    131 C45        -3.9170    2.8960   -3.4930 ca        1 MOL     -0.147342
    132 C46        -1.5790    3.2130   -4.2860 ca        1 MOL     -0.147342
    133 C47        -2.9900    3.2770   -4.4990 ca        1 MOL      0.232010
    134 O20        -3.5740    3.9460   -5.5660 oh        1 MOL     -0.526816
    135 H56        -0.6650    0.7350    1.3760 hn        1 MOL      0.343271
    136 H57         0.0480    2.8510   -0.4930 h1        1 MOL     -0.051265
    137 H58        -2.1970    0.6780   -0.5770 hc        1 MOL      0.101911
    138 H59        -0.6720    0.6980   -1.5440 hc        1 MOL      0.101911
    139 H60        -4.0240    1.7120   -1.6940 ha        1 MOL      0.188314
    140 H61        -0.0320    2.5770   -2.9600 ha        1 MOL      0.188314
    141 H62        -4.9910    2.9280   -3.5680 ha        1 MOL      0.143127
    142 H63        -0.9160    3.5060   -5.0860 ha        1 MOL      0.143127
    143 H64        -4.5260    3.9070   -5.5010 ho        1 MOL      0.371588
    144 N13        -1.8400    4.4250    0.0670 n         1 MOL     -0.582280
    145 C48        -2.7390    5.5200    0.5710 c3        1 MOL      0.144604
    146 C49        -3.9100    5.9510   -0.3080 c         1 MOL      0.559990
    147 O21        -3.9670    7.0920   -0.8290 o         1 MOL     -0.556185
    148 C50        -1.8320    6.7220    0.9230 c3        1 MOL     -0.111967
    149 C51        -0.8840    6.5990    2.0610 c3        1 MOL     -0.101346
    150 C52        -0.3400    8.0120    2.4110 c         1 MOL      0.717803
    151 O22        -0.9980    8.6970    3.2220 o         1 MOL     -0.667163
    152 O23         0.7310    8.3880    1.9880 o         1 MOL     -0.667163
    153 H65        -1.3360    4.6450   -0.7900 hn        1 MOL      0.328876
    154 H66        -3.1910    5.1660    1.5040 h1        1 MOL      0.138925
    155 H67        -2.4720    7.5790    1.1310 hc        1 MOL      0.039761
    156 H68        -1.2690    6.9440    0.0180 hc        1 MOL      0.039761
    157 H69        -0.0780    5.8720    1.9000 hc        1 MOL      0.008638
    158 H70        -1.4510    6.2930    2.9370 hc        1 MOL      0.008638
    159 N14        -5.0080    5.1610   -0.4130 n         1 MOL     -0.564710
    160 C53        -5.2710    3.9550    0.3640 c3        1 MOL      0.023860
    161 C54        -5.5170    4.2200    1.8880 c         1 MOL      0.467691
    162 O24        -5.8990    5.3650    2.2370 o         1 MOL     -0.535166
    163 C55        -6.4490    3.3030   -0.3250 c3        1 MOL      0.160122
    164 C56        -6.7020    1.8700    0.1580 c3        1 MOL     -0.620105
    165 C57        -7.7450    1.0720   -0.6450 c         1 MOL      0.897620
    166 O25        -7.5610    0.8810   -1.8940 o         1 MOL     -0.692423
    167 O26        -8.7360    0.6380   -0.0810 o         1 MOL     -0.692423
    168 H71        -5.7770    5.5950   -0.8990 hn        1 MOL      0.314881
    169 H72        -4.4270    3.2740    0.2410 h1        1 MOL      0.048093
    170 H73        -6.4190    3.3670   -1.4070 hc        1 MOL      0.001844
    171 H74        -7.3630    3.8190   -0.0410 hc        1 MOL      0.001844
    172 H75        -7.0270    1.9470    1.1970 hc        1 MOL      0.077551
    173 H76        -5.7620    1.3420    0.3070 hc        1 MOL      0.077551
    174 N15        -5.3560    3.1890    2.7710 n         1 MOL     -0.202271
    175 C58        -5.3510    3.1940    4.2570 c3        1 MOL     -0.244025
    176 H77        -5.8510    2.2980    4.6240 h1        1 MOL      0.106344
    177 H78        -4.3220    3.2090    4.6160 h1        1 MOL      0.106344
    178 H79        -5.8760    4.0770    4.6190 h1        1 MOL      0.106344
    179 H80        -5.0570    2.3970    2.2230 hn        1 MOL      0.277969
    180 Ca1        -8.9530   -1.9460   -0.4160 Ca        1 MOL      1.681189
    181 O27        -8.8080   -1.2760   -3.0780 oh        1 MOL     -0.836025
    182 O28       -11.5510   -3.3590   -0.3370 oh        1 MOL     -0.836025
    183 H81        -8.4720   -0.3960   -2.8820 ho        1 MOL      0.380128
    184 H82       -12.2090   -3.7500    0.2420 ho        1 MOL      0.380128
    185 H83        -8.4010   -1.5050   -3.9130 ho        1 MOL      0.380128
    186 H84       -11.9130   -3.4570   -1.2150 ho        1 MOL      0.380128
    187 O29       -11.1480   -0.5960   -1.3730 oh        1 MOL     -0.836025
    188 H85       -11.9790   -1.0190   -1.1510 ho        1 MOL      0.380128
    189 H86       -11.3450    0.3380   -1.3640 ho        1 MOL      0.380128
    190 O30        -8.6270   -4.3110   -1.9340 oh        1 MOL     -0.836025
    191 H87        -7.7230   -4.2290   -2.2290 ho        1 MOL      0.380128
    192 H88        -9.1060   -4.6130   -2.7000 ho        1 MOL      0.380128
    193 O31        -9.8550   -1.3550    2.0130 oh        1 MOL     -0.836025
    194 H89        -9.1180   -1.1570    2.5880 ho        1 MOL      0.380128
    195 H90       -10.5410   -1.6690    2.6030 ho        1 MOL      0.380128
@<TRIPOS>BOND
     1    1    2 1   
     2    1    4 1   
     3    1    5 1   
     4    1    6 1   
     5    2    3 2   
     6    2    7 1   
     7    7    8 1   
     8    7   15 1   
     9    8    9 1   
    10    8   11 1   
    11    8   16 1   
    12    9   10 2   
    13    9   19 1   
    14   11   12 1   
    15   11   17 1   
    16   11   18 1   
    17   12   13 1   
    18   12   14 1   
    19   19   20 1   
    20   19   27 1   
    21   20   21 1   
    22   20   23 1   
    23   20   28 1   
    24   21   22 2   
    25   21   38 1   
    26   23   24 1   
    27   23   25 1   
    28   23   29 1   
    29   24   26 1   
    30   24   30 1   
    31   24   31 1   
    32   25   32 1   
    33   25   33 1   
    34   25   34 1   
    35   26   35 1   
    36   26   36 1   
    37   26   37 1   
    38   38   39 1   
    39   38   46 1   
    40   39   40 1   
    41   39   42 1   
    42   39   47 1   
    43   40   41 2   
    44   40   50 1   
    45   42   43 1   
    46   42   48 1   
    47   42   49 1   
    48   43   44 1   
    49   43   45 1   
    50   50   51 1   
    51   50   54 1   
    52   51   52 1   
    53   51   55 1   
    54   51   56 1   
    55   52   53 2   
    56   52   57 1   
    57   57   58 1   
    58   57   65 1   
    59   58   59 1   
    60   58   61 1   
    61   58   66 1   
    62   59   60 2   
    63   59   69 1   
    64   61   62 1   
    65   61   67 1   
    66   61   68 1   
    67   62   63 1   
    68   62   64 1   
    69   69   70 1   
    70   69   73 1   
    71   70   71 1   
    72   70   74 1   
    73   70   75 1   
    74   71   72 2   
    75   71   76 1   
    76   76   77 1   
    77   76   85 1   
    78   77   78 1   
    79   77   80 1   
    80   77   86 1   
    81   78   79 2   
    82   78   93 1   
    83   80   81 1   
    84   80   87 1   
    85   80   88 1   
    86   81   82 1   
    87   81   89 1   
    88   81   90 1   
    89   82   83 1   
    90   82   84 2   
    91   83   91 1   
    92   83   92 1   
    93   93   94 1   
    94   93  100 1   
    95   94   95 1   
    96   94   97 1   
    97   94  101 1   
    98   95   96 2   
    99   95  109 1   
   100   97   98 1   
   101   97   99 1   
   102   97  102 1   
   103   98  103 1   
   104   98  104 1   
   105   98  105 1   
   106   99  106 1   
   107   99  107 1   
   108   99  108 1   
   109  109  110 1   
   110  109  117 1   
   111  110  111 1   
   112  110  113 1   
   113  110  118 1   
   114  111  112 2   
   115  111  123 1   
   116  113  114 1   
   117  113  119 1   
   118  113  120 1   
   119  114  115 1   
   120  114  116 2   
   121  115  121 1   
   122  115  122 1   
   123  123  124 1   
   124  123  135 1   
   125  124  125 1   
   126  124  127 1   
   127  124  136 1   
   128  125  126 2   
   129  125  144 1   
   130  127  128 1   
   131  127  137 1   
   132  127  138 1   
   133  128  129 ar  
   134  128  130 ar  
   135  129  131 ar  
   136  129  139 1   
   137  130  132 ar  
   138  130  140 1   
   139  131  133 ar  
   140  131  141 1   
   141  132  133 ar  
   142  132  142 1   
   143  133  134 1   
   144  134  143 1   
   145  144  145 1   
   146  144  153 1   
   147  145  146 1   
   148  145  148 1   
   149  145  154 1   
   150  146  147 2   
   151  146  159 1   
   152  148  149 1   
   153  148  155 1   
   154  148  156 1   
   155  149  150 1   
   156  149  157 1   
   157  149  158 1   
   158  150  151 1   
   159  150  152 1   
   160  159  160 1   
   161  159  168 1   
   162  160  161 1   
   163  160  163 1   
   164  160  169 1   
   165  161  162 2   
   166  161  174 1   
   167  163  164 1   
   168  163  170 1   
   169  163  171 1   
   170  164  165 1   
   171  164  172 1   
   172  164  173 1   
   173  165  166 1   
   174  165  167 1   
   175  174  175 1   
   176  174  179 1   
   177  175  176 1   
   178  175  177 1   
   179  175  178 1   
   180  181  183 1   
   181  181  185 1   
   182  182  184 1   
   183  182  186 1   
   184  187  188 1   
   185  187  189 1   
   186  190  191 1   
   187  190  192 1   
   188  193  194 1   
   189  193  195 1   
@<TRIPOS>SUBSTRUCTURE
     1 MOL         1 TEMP              0 ****  ****    0 ROOT
