@<TRIPOS>MOLECULE
MOL
  195   189     1     0     0
SMALL
resp


@<TRIPOS>ATOM
      1 C1          4.3700    4.4610    1.3410 c3        1 MOL     -0.012784
      2 C2          3.1170    4.4270    0.3560 c         1 MOL      0.540506
      3 O1          2.4780    3.3790    0.2600 o         1 MOL     -0.423001
      4 H1          5.1780    5.0300    0.8800 hc        1 MOL     -0.009816
      5 H2          4.0830    4.9350    2.2790 hc        1 MOL     -0.009816
      6 H3          4.7080    3.4440    1.5350 hc        1 MOL     -0.009816
      7 N1          2.7290    5.5420   -0.2420 n         1 MOL     -0.739370
      8 C3          1.6190    5.6400   -1.2230 c3        1 MOL     -0.029457
      9 C4          0.1650    5.2540   -0.6940 c         1 MOL      0.714559
     10 O2         -0.7550    4.8500   -1.4000 o         1 MOL     -0.571675
     11 C5          1.9690    4.9700   -2.5850 c3        1 MOL     -0.165790
     12 C6          3.4130    5.1600   -3.0940 c         1 MOL      0.723277
     13 O3          4.2640    4.2600   -2.8630 o         1 MOL     -0.727324
     14 O4          3.6580    6.0940   -3.9000 o         1 MOL     -0.727324
     15 H4          3.0710    6.3980    0.1550 hn        1 MOL      0.379207
     16 H5          1.5250    6.7150   -1.3900 h1        1 MOL      0.085177
     17 H6          1.2740    5.4290   -3.2920 hc        1 MOL      0.090457
     18 H7          1.7520    3.9070   -2.4630 hc        1 MOL      0.090457
     19 N2          0.1030    5.2260    0.6360 n         1 MOL     -0.582975
     20 C7         -1.0850    4.7400    1.3250 c3        1 MOL     -0.177515
     21 C8         -2.2140    5.7300    1.4160 c         1 MOL      0.608152
     22 O5         -1.9960    6.9260    1.4870 o         1 MOL     -0.594721
     23 C9         -0.8260    4.1850    2.7640 c3        1 MOL      0.205166
     24 C10        -0.2370    5.1810    3.8090 c3        1 MOL      0.028043
     25 C11         0.0920    2.9170    2.6860 c3        1 MOL     -0.442607
     26 C12         0.4860    4.6710    5.0650 c3        1 MOL     -0.194410
     27 H8          0.9530    5.3130    1.1610 hn        1 MOL      0.369007
     28 H9         -1.4280    3.9060    0.7140 h1        1 MOL      0.175087
     29 H10        -1.7960    3.8310    3.1320 hc        1 MOL      0.050861
     30 H11        -1.0640    5.8250    4.0770 hc        1 MOL     -0.000862
     31 H12         0.5420    5.7550    3.3000 hc        1 MOL     -0.000862
     32 H13        -0.2800    2.3640    1.8110 hc        1 MOL      0.127822
     33 H14         1.1350    3.1490    2.5320 hc        1 MOL      0.127822
     34 H15        -0.0770    2.3240    3.5860 hc        1 MOL      0.127822
     35 H16         1.3540    4.0400    4.8480 hc        1 MOL      0.043706
     36 H17         0.8110    5.5440    5.6120 hc        1 MOL      0.043706
     37 H18        -0.1070    3.9840    5.6670 hc        1 MOL      0.043706
     38 N3         -3.4950    5.3560    1.4080 n         1 MOL     -0.365086
     39 C13        -4.1540    4.0030    1.5280 c3        1 MOL     -0.210744
     40 C14        -4.8800    3.4960    0.3130 c         1 MOL      0.543878
     41 O6         -5.0920    2.3420    0.1590 o         1 MOL     -0.541414
     42 C15        -5.1100    4.0160    2.7600 c3        1 MOL     -0.068088
     43 C16        -6.2240    5.1280    2.7760 c         1 MOL      0.656732
     44 O7         -7.3120    4.8680    3.3800 o         1 MOL     -0.681729
     45 O8         -6.0770    6.3140    2.2320 o         1 MOL     -0.681729
     46 H19        -4.1310    6.0620    1.7590 hn        1 MOL      0.224398
     47 H20        -3.4960    3.2270    1.9210 h1        1 MOL      0.087160
     48 H21        -4.5000    4.0940    3.6550 hc        1 MOL      0.016250
     49 H22        -5.6550    3.0730    2.7830 hc        1 MOL      0.016250
     50 N4         -5.1040    4.3290   -0.6850 n         1 MOL     -0.212238
     51 C17        -5.9500    3.9270   -1.8030 c3        1 MOL     -0.249626
     52 C18        -7.3370    3.5310   -1.2700 c         1 MOL      0.549711
     53 O9         -8.0910    4.3820   -0.7520 o         1 MOL     -0.547555
     54 H23        -4.5920    5.1970   -0.6180 hn        1 MOL      0.246974
     55 H24        -5.5260    3.1240   -2.4070 h1        1 MOL      0.108652
     56 H25        -6.1110    4.8250   -2.4150 h1        1 MOL      0.108652
     57 N5         -7.7760    2.2760   -1.4440 n         1 MOL     -0.472040
     58 C19        -9.0320    1.7010   -0.9140 c3        1 MOL      0.280234
     59 C20        -8.7740    0.7060    0.2220 c         1 MOL      0.244571
     60 O10        -9.6630   -0.0360    0.5560 o         1 MOL     -0.494287
     61 C21        -9.7750    1.0760   -2.0840 c3        1 MOL     -0.522146
     62 C22        -8.8630    0.0790   -2.8290 c         1 MOL      0.748870
     63 O11        -7.8050   -0.4120   -2.4060 o         1 MOL     -0.709805
     64 O12        -9.1720   -0.2670   -3.9940 o         1 MOL     -0.709805
     65 H26        -7.1980    1.6070   -1.9070 hn        1 MOL      0.306408
     66 H27        -9.7170    2.4910   -0.5860 h1        1 MOL      0.071957
     67 H28       -10.1140    1.8590   -2.7590 hc        1 MOL      0.124481
     68 H29       -10.6460    0.5830   -1.6560 hc        1 MOL      0.124481
     69 N6         -7.5720    0.6820    0.8490 n         1 MOL     -0.086000
     70 C23        -7.1490   -0.1920    1.9350 c3        1 MOL     -0.223920
     71 C24        -6.9240   -1.6130    1.3890 c         1 MOL      0.469367
     72 O13        -6.7680   -2.5470    2.1730 o         1 MOL     -0.569714
     73 H30        -6.9200    1.3930    0.5640 hn        1 MOL      0.212092
     74 H31        -7.8650   -0.2550    2.7540 h1        1 MOL      0.116315
     75 H32        -6.1760    0.2080    2.2050 h1        1 MOL      0.116315
     76 N7         -6.8320   -1.8710    0.0830 n         1 MOL      0.014436
     77 C25        -6.3650   -3.1250   -0.4730 c3        1 MOL      0.180397
     78 C26        -4.9170   -3.4670    0.0080 c         1 MOL      0.371441
     79 O14        -4.5690   -4.6110    0.2570 o         1 MOL     -0.516618
     80 C27        -7.3430   -4.3100   -0.3620 c3        1 MOL     -0.094655
     81 C28        -8.7140   -3.9070   -0.9100 c3        1 MOL      0.008163
     82 C29        -9.7010   -5.0210   -0.7300 c         1 MOL      0.550777
     83 N8        -10.9370   -4.7200   -1.1190 n         1 MOL     -0.750493
     84 O15        -9.4750   -6.0740   -0.0910 o         1 MOL     -0.563567
     85 H33        -6.8870   -1.0470   -0.4960 hn        1 MOL      0.031846
     86 H34        -6.1860   -2.9830   -1.5400 h1        1 MOL      0.047748
     87 H35        -7.3440   -4.6480    0.6800 hc        1 MOL      0.030368
     88 H36        -7.0110   -5.1320   -0.9860 hc        1 MOL      0.030368
     89 H37        -8.6550   -3.5590   -1.9410 hc        1 MOL      0.035754
     90 H38        -9.0210   -3.1000   -0.2540 hc        1 MOL      0.035754
     91 H39       -11.2080   -3.8660   -1.5830 hn        1 MOL      0.331582
     92 H40       -11.6340   -5.4480   -1.0570 hn        1 MOL      0.331582
     93 N9         -4.1060   -2.4700    0.2550 n         1 MOL     -0.394719
     94 C30        -2.7900   -2.6790    0.9180 c3        1 MOL      0.111581
     95 C31        -1.6430   -2.9080   -0.0650 c         1 MOL      0.414437
     96 O16        -0.6870   -2.1990   -0.1040 o         1 MOL     -0.549104
     97 C32        -2.4720   -1.5520    1.9300 c3        1 MOL      0.572859
     98 C33        -2.6030   -0.1000    1.4720 c3        1 MOL     -0.431228
     99 C34        -3.3480   -1.7640    3.1850 c3        1 MOL     -0.431228
    100 H41        -4.4060   -1.5180    0.1430 hn        1 MOL      0.204099
    101 H42        -2.7830   -3.6140    1.4890 h1        1 MOL      0.035521
    102 H43        -1.4450   -1.6570    2.2680 hc        1 MOL     -0.104016
    103 H44        -1.9390    0.0580    0.6230 hc        1 MOL      0.084237
    104 H45        -3.6230    0.0110    1.0990 hc        1 MOL      0.084237
    105 H46        -2.3590    0.4560    2.3780 hc        1 MOL      0.084237
    106 H47        -4.3690   -2.0780    2.9470 hc        1 MOL      0.084237
    107 H48        -2.8720   -2.6400    3.6160 hc        1 MOL      0.084237
    108 H49        -3.3760   -0.8790    3.8240 hc        1 MOL      0.084237
    109 N10        -1.7710   -3.9140   -0.9300 n         1 MOL     -0.366275
    110 C35        -0.7690   -4.3220   -1.8780 c3        1 MOL      0.339351
    111 C36         0.1460   -5.2290   -1.0530 c         1 MOL      0.468929
    112 O17        -0.2240   -6.3750   -0.7380 o         1 MOL     -0.558327
    113 C37        -1.3480   -4.9830   -3.1310 c3        1 MOL     -0.508426
    114 C38        -1.8830   -3.8360   -3.9580 c         1 MOL      0.718093
    115 N11        -1.0090   -3.0890   -4.6010 n         1 MOL     -0.787533
    116 O18        -3.0770   -3.6460   -4.0740 o         1 MOL     -0.539999
    117 H50        -2.5920   -4.4950   -0.8510 hn        1 MOL      0.227652
    118 H51        -0.1370   -3.4860   -2.1920 h1        1 MOL      0.005332
    119 H52        -2.0740   -5.7620   -2.9340 hc        1 MOL      0.138332
    120 H53        -0.5300   -5.4530   -3.6860 hc        1 MOL      0.138332
    121 H54        -0.0300   -3.3440   -4.5480 hn        1 MOL      0.356910
    122 H55        -1.2990   -2.3440   -5.2150 hn        1 MOL      0.356910
    123 N12         1.4030   -4.8460   -0.9130 n         1 MOL     -0.421669
    124 C39         2.3990   -5.4340    0.0120 c3        1 MOL      0.324554
    125 C40         3.3840   -4.3450    0.5490 c         1 MOL      0.415491
    126 O19         3.3750   -3.2390   -0.0190 o         1 MOL     -0.500087
    127 C41         3.1930   -6.5760   -0.6510 c3        1 MOL     -0.439736
    128 C42         4.1420   -6.1490   -1.7090 ca        1 MOL      0.127833
    129 C43         5.5670   -6.1630   -1.4660 ca        1 MOL     -0.163424
    130 C44         3.6650   -5.8040   -3.0550 ca        1 MOL     -0.163424
    131 C45         6.5320   -6.0070   -2.5360 ca        1 MOL     -0.231068
    132 C46         4.6120   -5.4710   -4.0280 ca        1 MOL     -0.231068
    133 C47         6.0020   -5.6980   -3.7790 ca        1 MOL      0.258878
    134 O20         6.8680   -5.5120   -4.7940 oh        1 MOL     -0.478754
    135 H56         1.7090   -3.9850   -1.3620 hn        1 MOL      0.234918
    136 H57         1.8100   -5.8400    0.8380 h1        1 MOL      0.034935
    137 H58         2.4600   -7.1400   -1.2160 hc        1 MOL      0.126872
    138 H59         3.5660   -7.1330    0.2070 hc        1 MOL      0.126872
    139 H60         5.9410   -6.5020   -0.5120 ha        1 MOL      0.124199
    140 H61         2.6170   -5.7840   -3.2990 ha        1 MOL      0.124199
    141 H62         7.5810   -6.0660   -2.2980 ha        1 MOL      0.143235
    142 H63         4.3100   -5.1940   -5.0310 ha        1 MOL      0.143235
    143 H64         7.7090   -5.7980   -4.4160 ho        1 MOL      0.341437
    144 N13         4.2520   -4.6010    1.5420 n         1 MOL     -0.367025
    145 C48         5.0540   -3.5790    2.2320 c3        1 MOL      0.073203
    146 C49         6.5260   -3.5380    1.7110 c         1 MOL      0.561551
    147 O21         7.1620   -4.5150    1.2780 o         1 MOL     -0.568907
    148 C50         5.0310   -3.9500    3.7570 c3        1 MOL      0.152642
    149 C51         3.6020   -4.0020    4.3570 c3        1 MOL     -0.187647
    150 C52         3.5540   -4.5050    5.8200 c         1 MOL      0.735583
    151 O22         3.3370   -5.7510    6.0140 o         1 MOL     -0.746659
    152 O23         3.6410   -3.6940    6.7610 o         1 MOL     -0.746659
    153 H65         4.3870   -5.5690    1.8060 hn        1 MOL      0.280426
    154 H66         4.6380   -2.6000    1.9970 h1        1 MOL      0.099819
    155 H67         5.5730   -3.1430    4.2400 hc        1 MOL     -0.043574
    156 H68         5.4860   -4.9230    3.9550 hc        1 MOL     -0.043574
    157 H69         2.9270   -4.5980    3.7410 hc        1 MOL     -0.002835
    158 H70         3.2840   -2.9650    4.3520 hc        1 MOL     -0.002835
    159 N14         7.2720   -2.4200    1.8170 n         1 MOL     -0.534464
    160 C53         6.9400   -1.0420    2.3020 c3        1 MOL     -0.083107
    161 C54         7.8100   -0.7970    3.5290 c         1 MOL      0.652391
    162 O24         8.9160   -1.3400    3.6300 o         1 MOL     -0.563481
    163 C55         7.2090   -0.0650    1.0780 c3        1 MOL     -0.156145
    164 C56         6.8890    1.4060    1.4200 c3        1 MOL     -0.246380
    165 C57         6.9390    2.1320    0.0860 c         1 MOL      0.719527
    166 O25         7.8710    2.9000   -0.2180 o         1 MOL     -0.767144
    167 O26         5.9440    2.1070   -0.6000 o         1 MOL     -0.767144
    168 H71         8.1810   -2.5240    1.3970 hn        1 MOL      0.307429
    169 H72         5.8690   -0.9470    2.5030 h1        1 MOL      0.077350
    170 H73         6.4660   -0.3820    0.3450 hc        1 MOL      0.107362
    171 H74         8.2040   -0.1980    0.6520 hc        1 MOL      0.107362
    172 H75         7.6840    1.6780    2.1140 hc        1 MOL      0.085916
    173 H76         5.9050    1.4320    1.8810 hc        1 MOL      0.085916
    174 N15         7.3480   -0.0080    4.4960 n         1 MOL     -0.275112
    175 C58         7.9320    0.1980    5.8120 c3        1 MOL     -0.187209
    176 H77         8.9570    0.5520    5.7030 h1        1 MOL      0.089516
    177 H78         7.3480    0.9410    6.3570 h1        1 MOL      0.089516
    178 H79         7.9300   -0.7420    6.3630 h1        1 MOL      0.089516
    179 H80         6.5230    0.5350    4.2900 hn        1 MOL      0.221573
    180 Ca1         6.7040    3.7780   -2.4920 Ca        1 MOL      1.793774
    181 O27         8.1320    4.1080   -4.8830 oh        1 MOL     -0.876312
    182 H81         8.4280    3.2460   -5.1710 ho        1 MOL      0.426364
    183 H82         8.8090    4.7100   -5.1830 ho        1 MOL      0.426364
    184 O28         8.8320    2.1510   -2.8770 oh        1 MOL     -0.876312
    185 H83         8.8280    1.2930   -3.2930 ho        1 MOL      0.426364
    186 H84         9.6020    2.1380   -2.3000 ho        1 MOL      0.426364
    187 O29         6.3040    1.9650   -4.4080 oh        1 MOL     -0.876312
    188 H85         6.5870    1.3870   -5.1080 ho        1 MOL      0.426364
    189 H86         5.3510    1.8750   -4.3800 ho        1 MOL      0.426364
    190 O30         8.9080    5.3020   -2.3040 oh        1 MOL     -0.876312
    191 H87         9.2310    5.5000   -1.4280 ho        1 MOL      0.426364
    192 H88         9.6580    5.4720   -2.8810 ho        1 MOL      0.426364
    193 O31         6.3270    6.0140   -3.5550 oh        1 MOL     -0.876312
    194 H89         6.6540    6.8780   -3.8160 ho        1 MOL      0.426364
    195 H90         5.3800    6.0770   -3.6700 ho        1 MOL      0.426364
@<TRIPOS>BOND
     1    1    2 1   
     2    1    4 1   
     3    1    5 1   
     4    1    6 1   
     5    2    3 2   
     6    2    7 1   
     7    7    8 1   
     8    7   15 1   
     9    8    9 1   
    10    8   11 1   
    11    8   16 1   
    12    9   10 2   
    13    9   19 1   
    14   11   12 1   
    15   11   17 1   
    16   11   18 1   
    17   12   13 1   
    18   12   14 1   
    19   19   20 1   
    20   19   27 1   
    21   20   21 1   
    22   20   23 1   
    23   20   28 1   
    24   21   22 2   
    25   21   38 1   
    26   23   24 1   
    27   23   25 1   
    28   23   29 1   
    29   24   26 1   
    30   24   30 1   
    31   24   31 1   
    32   25   32 1   
    33   25   33 1   
    34   25   34 1   
    35   26   35 1   
    36   26   36 1   
    37   26   37 1   
    38   38   39 1   
    39   38   46 1   
    40   39   40 1   
    41   39   42 1   
    42   39   47 1   
    43   40   41 2   
    44   40   50 1   
    45   42   43 1   
    46   42   48 1   
    47   42   49 1   
    48   43   44 1   
    49   43   45 1   
    50   50   51 1   
    51   50   54 1   
    52   51   52 1   
    53   51   55 1   
    54   51   56 1   
    55   52   53 2   
    56   52   57 1   
    57   57   58 1   
    58   57   65 1   
    59   58   59 1   
    60   58   61 1   
    61   58   66 1   
    62   59   60 2   
    63   59   69 1   
    64   61   62 1   
    65   61   67 1   
    66   61   68 1   
    67   62   63 1   
    68   62   64 1   
    69   69   70 1   
    70   69   73 1   
    71   70   71 1   
    72   70   74 1   
    73   70   75 1   
    74   71   72 2   
    75   71   76 1   
    76   76   77 1   
    77   76   85 1   
    78   77   78 1   
    79   77   80 1   
    80   77   86 1   
    81   78   79 2   
    82   78   93 1   
    83   80   81 1   
    84   80   87 1   
    85   80   88 1   
    86   81   82 1   
    87   81   89 1   
    88   81   90 1   
    89   82   83 1   
    90   82   84 2   
    91   83   91 1   
    92   83   92 1   
    93   93   94 1   
    94   93  100 1   
    95   94   95 1   
    96   94   97 1   
    97   94  101 1   
    98   95   96 2   
    99   95  109 1   
   100   97   98 1   
   101   97   99 1   
   102   97  102 1   
   103   98  103 1   
   104   98  104 1   
   105   98  105 1   
   106   99  106 1   
   107   99  107 1   
   108   99  108 1   
   109  109  110 1   
   110  109  117 1   
   111  110  111 1   
   112  110  113 1   
   113  110  118 1   
   114  111  112 2   
   115  111  123 1   
   116  113  114 1   
   117  113  119 1   
   118  113  120 1   
   119  114  115 1   
   120  114  116 2   
   121  115  121 1   
   122  115  122 1   
   123  123  124 1   
   124  123  135 1   
   125  124  125 1   
   126  124  127 1   
   127  124  136 1   
   128  125  126 2   
   129  125  144 1   
   130  127  128 1   
   131  127  137 1   
   132  127  138 1   
   133  128  129 ar  
   134  128  130 ar  
   135  129  131 ar  
   136  129  139 1   
   137  130  132 ar  
   138  130  140 1   
   139  131  133 ar  
   140  131  141 1   
   141  132  133 ar  
   142  132  142 1   
   143  133  134 1   
   144  134  143 1   
   145  144  145 1   
   146  144  153 1   
   147  145  146 1   
   148  145  148 1   
   149  145  154 1   
   150  146  147 2   
   151  146  159 1   
   152  148  149 1   
   153  148  155 1   
   154  148  156 1   
   155  149  150 1   
   156  149  157 1   
   157  149  158 1   
   158  150  151 1   
   159  150  152 1   
   160  159  160 1   
   161  159  168 1   
   162  160  161 1   
   163  160  163 1   
   164  160  169 1   
   165  161  162 2   
   166  161  174 1   
   167  163  164 1   
   168  163  170 1   
   169  163  171 1   
   170  164  165 1   
   171  164  172 1   
   172  164  173 1   
   173  165  166 1   
   174  165  167 1   
   175  174  175 1   
   176  174  179 1   
   177  175  176 1   
   178  175  177 1   
   179  175  178 1   
   180  181  182 1   
   181  181  183 1   
   182  184  185 1   
   183  184  186 1   
   184  187  188 1   
   185  187  189 1   
   186  190  191 1   
   187  190  192 1   
   188  193  194 1   
   189  193  195 1   
@<TRIPOS>SUBSTRUCTURE
     1 MOL         1 TEMP              0 ****  ****    0 ROOT
