@<TRIPOS>MOLECULE
MOL
  192   187     1     0     0
SMALL
resp


@<TRIPOS>ATOM
      1 C1          5.9620    1.5860    5.7670 c3        1 MOL     -0.187948
      2 C2          5.1910    1.4140    4.4860 c         1 MOL      0.736343
      3 O1          4.7020    2.4250    3.9600 o         1 MOL     -0.600428
      4 H1          5.5410    0.9360    6.5340 hc        1 MOL      0.042386
      5 H2          7.0070    1.3210    5.6020 hc        1 MOL      0.042386
      6 H3          5.8980    2.6240    6.0950 hc        1 MOL      0.042386
      7 N1          5.1240    0.2070    3.9540 n         1 MOL     -0.524309
      8 C3          4.7950   -0.0670    2.5810 c3        1 MOL      0.546435
      9 C4          3.2610   -0.0260    2.2360 c         1 MOL     -0.080515
     10 O2          2.9320   -0.2130    1.0900 o         1 MOL     -0.191778
     11 C5          5.4100   -1.4120    2.1310 c3        1 MOL     -0.123739
     12 C6          6.8980   -1.6660    2.3810 c         1 MOL      0.697175
     13 O3          7.3400   -1.6230    3.5360 o         1 MOL     -0.698345
     14 O4          7.7010   -1.8770    1.4150 o         1 MOL     -0.698345
     15 H4          5.4590   -0.5630    4.5170 hn        1 MOL      0.247077
     16 H5          5.2810    0.6730    1.9600 h1        1 MOL     -0.026296
     17 H6          5.2990   -1.5600    1.0500 hc        1 MOL     -0.065493
     18 H7          4.8380   -2.2310    2.5720 hc        1 MOL     -0.065493
     19 N2          2.3700    0.3210    3.1770 n         1 MOL     -0.343543
     20 C7          0.9050    0.4030    2.9040 c3        1 MOL      0.504985
     21 C8          0.4160    1.7680    2.4500 c         1 MOL      0.093572
     22 O5          0.9130    2.7630    2.9840 o         1 MOL     -0.446458
     23 C9          0.0500   -0.1230    4.0410 c3        1 MOL     -0.294467
     24 C10         0.3750   -1.5900    4.2120 c3        1 MOL     -0.104056
     25 C11        -0.6390   -2.3740    5.0740 c3        1 MOL      0.042756
     26 C12        -0.8760   -3.8450    4.6010 c3        1 MOL     -0.437561
     27 N3         -1.5770   -3.8620    3.3370 n4        1 MOL     -0.031721
     28 H8          2.7370    0.4160    4.1060 hn        1 MOL      0.209931
     29 H9          0.6670   -0.2060    2.0300 h1        1 MOL      0.106268
     30 H10        -0.9950   -0.0590    3.7260 hc        1 MOL      0.104415
     31 H11         0.1730    0.5050    4.9240 hc        1 MOL      0.104415
     32 H12         1.2650   -1.6830    4.8350 hc        1 MOL      0.042012
     33 H13         0.3930   -2.0790    3.2390 hc        1 MOL      0.042012
     34 H14        -1.5320   -1.7460    5.1400 hc        1 MOL      0.051385
     35 H15        -0.3080   -2.3190    6.1120 hc        1 MOL      0.051385
     36 H16        -1.5280   -4.3010    5.3580 hx        1 MOL      0.186400
     37 H17         0.1390   -4.2280    4.6380 hx        1 MOL      0.186400
     38 H18        -2.5200   -3.5080    3.3610 hn        1 MOL      0.268309
     39 H19        -1.0020   -3.4550    2.6010 hn        1 MOL      0.268309
     40 H20        -1.7140   -4.8060    3.0000 hn        1 MOL      0.268309
     41 N4         -0.5480    1.8000    1.5060 n         1 MOL      0.103416
     42 C13        -1.1590    0.9150    0.6910 c3        1 MOL     -0.269005
     43 C14        -1.9160   -0.2260    1.4320 c         1 MOL      0.131313
     44 O6         -1.3810   -1.3340    1.5620 o         1 MOL     -0.386483
     45 C15        -0.3930    0.4590   -0.5640 c3        1 MOL     -0.126668
     46 C16        -0.0480    1.5220   -1.5530 c         1 MOL      0.772278
     47 O7         -0.6070    2.6650   -1.4400 o         1 MOL     -0.708002
     48 O8          0.6700    1.2460   -2.5140 o         1 MOL     -0.708002
     49 H21        -0.6580    2.7630    1.2070 hn        1 MOL      0.083729
     50 H22        -1.9160    1.6020    0.3110 h1        1 MOL      0.030323
     51 H23        -1.0870   -0.1790   -1.1060 hc        1 MOL      0.059072
     52 H24         0.5420   -0.0560   -0.3520 hc        1 MOL      0.059072
     53 N5         -3.0750   -0.0820    2.0300 n         1 MOL     -0.129627
     54 C17        -3.8490    1.1250    2.1190 c3        1 MOL     -0.133575
     55 C18        -5.0770    1.0090    3.0110 c         1 MOL      0.483280
     56 O9         -5.2130    0.1180    3.8730 o         1 MOL     -0.536754
     57 H25        -3.3930   -0.8660    2.5890 hn        1 MOL      0.211273
     58 H26        -4.2290    1.2740    1.1020 h1        1 MOL      0.099915
     59 H27        -3.2380    1.9850    2.4090 h1        1 MOL      0.099915
     60 N6         -6.0380    1.9260    2.7980 n         1 MOL     -0.410760
     61 C19        -6.1290    2.9480    1.6970 c3        1 MOL      0.076481
     62 C20        -6.6820    2.5230    0.2590 c         1 MOL      0.478325
     63 O10        -7.5710    1.6620    0.2430 o         1 MOL     -0.464087
     64 C21        -6.9320    4.1660    2.2990 c3        1 MOL     -0.227819
     65 C22        -8.3250    3.8930    2.8780 c         1 MOL      0.744937
     66 O11        -8.4110    3.1000    3.8370 o         1 MOL     -0.649495
     67 O12        -9.4060    4.3900    2.4690 o         1 MOL     -0.649495
     68 H28        -6.7760    1.9630    3.4880 hn        1 MOL      0.297571
     69 H29        -5.1970    3.4500    1.4500 h1        1 MOL      0.011753
     70 H30        -6.9600    4.9650    1.5610 hc        1 MOL      0.034442
     71 H31        -6.4250    4.5550    3.1860 hc        1 MOL      0.034442
     72 N7         -6.2340    3.2090   -0.7340 n         1 MOL     -0.231739
     73 C23        -6.7410    3.1260   -2.1610 c3        1 MOL     -0.167457
     74 C24        -6.5470    1.7580   -2.7670 c         1 MOL      0.522043
     75 O13        -7.4330    1.2210   -3.4690 o         1 MOL     -0.528956
     76 H32        -5.5090    3.9000   -0.5650 hn        1 MOL      0.179887
     77 H33        -6.3380    3.8590   -2.8610 h1        1 MOL      0.121914
     78 H34        -7.8110    3.3040   -2.2190 h1        1 MOL      0.121914
     79 N8         -5.4390    1.0590   -2.4810 n         1 MOL     -0.455604
     80 C25        -5.1890   -0.3380   -2.8210 c3        1 MOL      0.193063
     81 C26        -4.6460   -1.0350   -1.5520 c         1 MOL      0.170553
     82 O14        -3.8800   -0.4360   -0.8030 o         1 MOL     -0.224641
     83 C27        -4.1940   -0.4220   -3.9910 c3        1 MOL      0.281254
     84 C28        -4.7010   -0.2380   -5.4240 c3        1 MOL     -0.361074
     85 O15        -3.5410   -1.6640   -4.0070 oh        1 MOL     -0.619454
     86 H35        -4.7760    1.4380   -1.8140 hn        1 MOL      0.172511
     87 H36        -6.1330   -0.8020   -3.1020 h1        1 MOL      0.082352
     88 H37        -3.5380    0.4020   -3.6930 h1        1 MOL      0.014919
     89 H38        -2.7700   -1.6240   -4.5870 ho        1 MOL      0.425313
     90 H39        -5.3900   -1.0190   -5.7670 hc        1 MOL      0.100121
     91 H40        -5.2530    0.6950   -5.4410 hc        1 MOL      0.100121
     92 H41        -3.8380   -0.1580   -6.0850 hc        1 MOL      0.100121
     93 N9         -5.1200   -2.2690   -1.2280 n         1 MOL     -0.233912
     94 C29        -4.7390   -3.0230   -0.0100 c3        1 MOL      0.164183
     95 C30        -3.5540   -3.9770   -0.1600 c         1 MOL      0.138924
     96 O16        -3.2170   -4.7560    0.7960 o         1 MOL     -0.573612
     97 C31        -5.9380   -3.7460    0.6870 c3        1 MOL      0.000718
     98 C32        -6.7950   -4.7660   -0.0690 c3        1 MOL     -0.069438
     99 C33        -6.8500   -2.6430    1.2460 c3        1 MOL     -0.103514
    100 C34        -6.0940   -6.0760   -0.3270 c3        1 MOL     -0.158711
    101 H42        -5.8300   -2.6350   -1.8340 hn        1 MOL      0.264720
    102 H43        -4.4590   -2.2480    0.6930 h1        1 MOL      0.055234
    103 H44        -5.5010   -4.3220    1.5080 hc        1 MOL      0.057597
    104 H45        -7.1000   -4.2840   -0.9930 hc        1 MOL      0.040518
    105 H46        -7.6430   -5.1920    0.4720 hc        1 MOL      0.040518
    106 H47        -7.6640   -3.0370    1.8670 hc        1 MOL      0.031244
    107 H48        -6.2130   -1.8940    1.7160 hc        1 MOL      0.031244
    108 H49        -7.3230   -2.1420    0.4010 hc        1 MOL      0.031244
    109 H50        -5.2280   -5.9670   -0.9820 hc        1 MOL      0.050058
    110 H51        -5.7310   -6.4860    0.6170 hc        1 MOL      0.050058
    111 H52        -6.7990   -6.7700   -0.7870 hc        1 MOL      0.050058
    112 N10        -2.8640   -3.8910   -1.2780 n         1 MOL      0.021288
    113 C35        -1.5660   -4.6270   -1.4910 c3        1 MOL      0.083011
    114 C36        -0.3860   -3.6260   -1.2850 c         1 MOL      0.369656
    115 O17        -0.3860   -2.5690   -1.8420 o         1 MOL     -0.455859
    116 C37        -1.4550   -5.2770   -2.8680 c3        1 MOL      0.446361
    117 C38        -2.2970   -6.5090   -2.9460 c3        1 MOL     -0.209126
    118 O18        -0.1140   -5.5420   -3.2500 oh        1 MOL     -0.658215
    119 H53        -3.1410   -3.2390   -1.9930 hn        1 MOL      0.036049
    120 H54        -1.4600   -5.3900   -0.7120 h1        1 MOL      0.034998
    121 H55        -1.8340   -4.5430   -3.5900 h1        1 MOL     -0.042502
    122 H56         0.3150   -4.7670   -3.6170 ho        1 MOL      0.424089
    123 H57        -3.3630   -6.3420   -2.8040 hc        1 MOL      0.046786
    124 H58        -2.2450   -6.8770   -3.9730 hc        1 MOL      0.046786
    125 H59        -1.9050   -7.2920   -2.2930 hc        1 MOL      0.046786
    126 N11         0.6490   -3.9710   -0.4910 n         1 MOL     -0.528043
    127 C39         1.8780   -3.0870   -0.1840 c3        1 MOL      0.111672
    128 C40         2.7440   -2.7000   -1.3960 c         1 MOL      0.497233
    129 O19         2.7380   -3.4830   -2.3230 o         1 MOL     -0.545671
    130 C41         2.7820   -3.5580    0.9290 c3        1 MOL      0.152092
    131 C42         3.5310   -4.8860    0.6410 c3        1 MOL     -0.427628
    132 O20         2.0150   -3.7030    2.0660 oh        1 MOL     -0.590947
    133 H60         0.6340   -4.8870   -0.0630 hn        1 MOL      0.303508
    134 H61         1.3960   -2.1740    0.1670 h1        1 MOL      0.159853
    135 H62         3.4920   -2.7440    1.1040 h1        1 MOL      0.143150
    136 H63         2.4790   -4.0910    2.8120 ho        1 MOL      0.404979
    137 H64         2.8540   -5.7040    0.4220 hc        1 MOL      0.120174
    138 H65         4.3010   -4.7780   -0.1190 hc        1 MOL      0.120174
    139 H66         4.0060   -5.2010    1.5730 hc        1 MOL      0.120174
    140 N12         3.5310   -1.6200   -1.3520 n         1 MOL     -0.133987
    141 C43         4.4020   -1.0720   -2.3530 c3        1 MOL     -0.264201
    142 C44         4.8080    0.4760   -2.1330 c         1 MOL      0.645651
    143 O21         5.3440    1.1410   -3.0060 o         1 MOL     -0.603446
    144 C45         5.5990   -2.0310   -2.4360 c3        1 MOL     -0.075650
    145 C46         6.7040   -1.6150   -3.4410 c3        1 MOL     -0.014089
    146 C47         7.9270   -2.6090   -3.4150 c3        1 MOL     -0.133753
    147 C48         8.7930   -2.5630   -2.1590 c3        1 MOL      0.322538
    148 N13        10.1630   -3.0490   -2.4220 n4        1 MOL     -0.488400
    149 H67         3.4760   -1.0950   -0.4900 hn        1 MOL     -0.026420
    150 H68         3.8600   -1.1700   -3.2950 h1        1 MOL      0.158185
    151 H69         5.3730   -3.0650   -2.6900 hc        1 MOL      0.076024
    152 H70         6.0650   -2.1600   -1.4530 hc        1 MOL      0.076024
    153 H71         7.0320   -0.6020   -3.2230 hc        1 MOL      0.050127
    154 H72         6.3000   -1.6090   -4.4480 hc        1 MOL      0.050127
    155 H73         8.6100   -2.3660   -4.2420 hc        1 MOL      0.016204
    156 H74         7.6260   -3.6490   -3.4070 hc        1 MOL      0.016204
    157 H75         8.2280   -3.0010   -1.3290 hx        1 MOL      0.016265
    158 H76         8.7910   -1.5510   -1.7460 hx        1 MOL      0.016265
    159 H77        10.8150   -2.7820   -1.7030 hn        1 MOL      0.345746
    160 H78        10.1390   -4.0460   -2.2980 hn        1 MOL      0.345746
    161 H79        10.6130   -2.8560   -3.3100 hn        1 MOL      0.345746
    162 N14         4.4090    1.1080   -1.0410 n         1 MOL     -0.127509
    163 C49         4.5940    2.5750   -0.6800 c3        1 MOL     -0.226652
    164 C50         6.0550    2.9750   -0.4080 c         1 MOL      0.447512
    165 O22         6.8010    2.3220    0.3580 o         1 MOL     -0.499482
    166 C51         3.5840    2.9920    0.4170 c3        1 MOL      0.264047
    167 C52         3.6910    4.4790    0.7670 c3        1 MOL     -0.235427
    168 C53         3.2770    5.4380   -0.3400 c         1 MOL      0.718181
    169 O23         2.0640    5.5560   -0.5930 o         1 MOL     -0.792295
    170 O24         4.1960    6.0060   -1.0570 o         1 MOL     -0.792295
    171 H80         4.1300    0.5680   -0.2350 hn        1 MOL      0.115720
    172 H81         4.3310    3.1380   -1.5660 h1        1 MOL      0.046770
    173 H82         3.8090    2.5210    1.3710 hc        1 MOL     -0.065328
    174 H83         2.5630    2.7970    0.1050 hc        1 MOL     -0.065328
    175 H84         4.6280    4.7270    1.2530 hc        1 MOL      0.099503
    176 H85         2.9950    4.6560    1.6010 hc        1 MOL      0.099503
    177 N15         6.4780    4.1220   -0.8900 n         1 MOL     -0.324324
    178 C54         7.8620    4.6380   -0.8020 c3        1 MOL     -0.137443
    179 H86         7.9990    5.4360   -1.5310 h1        1 MOL      0.083397
    180 H87         8.0420    5.0280    0.2000 h1        1 MOL      0.083397
    181 H88         8.5650    3.8310   -1.0100 h1        1 MOL      0.083397
    182 H89         5.7980    4.6460   -1.4030 hn        1 MOL      0.403339
    183 Ca1        -0.1250    5.1760   -1.8540 Ca        1 MOL      1.599919
    184 O25        -1.6460    4.5900   -3.9950 oh        1 MOL     -0.840379
    185 H90        -1.6640    5.1430   -4.7850 ho        1 MOL      0.421698
    186 H91        -2.2830    3.8950   -4.1800 ho        1 MOL      0.421698
    187 O26         1.1310    3.6010   -3.5580 oh        1 MOL     -0.840379
    188 H92         2.0080    3.6030   -3.9420 ho        1 MOL      0.421698
    189 H93         0.9680    2.6910   -3.3450 ho        1 MOL      0.421698
    190 O27         0.7020    6.8290   -4.0760 oh        1 MOL     -0.840379
    191 H94         1.5440    6.8970   -4.5230 ho        1 MOL      0.421698
    192 H95         0.7130    7.5250   -3.4290 ho        1 MOL      0.421698
@<TRIPOS>BOND
     1    1    2 1   
     2    1    4 1   
     3    1    5 1   
     4    1    6 1   
     5    2    3 2   
     6    2    7 1   
     7    7    8 1   
     8    7   15 1   
     9    8    9 1   
    10    8   11 1   
    11    8   16 1   
    12    9   10 2   
    13    9   19 1   
    14   11   12 1   
    15   11   17 1   
    16   11   18 1   
    17   12   13 1   
    18   12   14 1   
    19   19   20 1   
    20   19   28 1   
    21   20   21 1   
    22   20   23 1   
    23   20   29 1   
    24   21   22 2   
    25   21   41 1   
    26   23   24 1   
    27   23   30 1   
    28   23   31 1   
    29   24   25 1   
    30   24   32 1   
    31   24   33 1   
    32   25   26 1   
    33   25   34 1   
    34   25   35 1   
    35   26   27 1   
    36   26   36 1   
    37   26   37 1   
    38   27   38 1   
    39   27   39 1   
    40   27   40 1   
    41   41   42 1   
    42   41   49 1   
    43   42   43 1   
    44   42   45 1   
    45   42   50 1   
    46   43   44 2   
    47   43   53 1   
    48   45   46 1   
    49   45   51 1   
    50   45   52 1   
    51   46   47 1   
    52   46   48 1   
    53   53   54 1   
    54   53   57 1   
    55   54   55 1   
    56   54   58 1   
    57   54   59 1   
    58   55   56 2   
    59   55   60 1   
    60   60   61 1   
    61   60   68 1   
    62   61   62 1   
    63   61   64 1   
    64   61   69 1   
    65   62   63 2   
    66   62   72 1   
    67   64   65 1   
    68   64   70 1   
    69   64   71 1   
    70   65   66 1   
    71   65   67 1   
    72   72   73 1   
    73   72   76 1   
    74   73   74 1   
    75   73   77 1   
    76   73   78 1   
    77   74   75 2   
    78   74   79 1   
    79   79   80 1   
    80   79   86 1   
    81   80   81 1   
    82   80   83 1   
    83   80   87 1   
    84   81   82 2   
    85   81   93 1   
    86   83   84 1   
    87   83   85 1   
    88   83   88 1   
    89   84   90 1   
    90   84   91 1   
    91   84   92 1   
    92   85   89 1   
    93   93   94 1   
    94   93  101 1   
    95   94   95 1   
    96   94   97 1   
    97   94  102 1   
    98   95   96 2   
    99   95  112 1   
   100   97   98 1   
   101   97   99 1   
   102   97  103 1   
   103   98  100 1   
   104   98  104 1   
   105   98  105 1   
   106   99  106 1   
   107   99  107 1   
   108   99  108 1   
   109  100  109 1   
   110  100  110 1   
   111  100  111 1   
   112  112  113 1   
   113  112  119 1   
   114  113  114 1   
   115  113  116 1   
   116  113  120 1   
   117  114  115 2   
   118  114  126 1   
   119  116  117 1   
   120  116  118 1   
   121  116  121 1   
   122  117  123 1   
   123  117  124 1   
   124  117  125 1   
   125  118  122 1   
   126  126  127 1   
   127  126  133 1   
   128  127  128 1   
   129  127  130 1   
   130  127  134 1   
   131  128  129 2   
   132  128  140 1   
   133  130  131 1   
   134  130  132 1   
   135  130  135 1   
   136  131  137 1   
   137  131  138 1   
   138  131  139 1   
   139  132  136 1   
   140  140  141 1   
   141  140  149 1   
   142  141  142 1   
   143  141  144 1   
   144  141  150 1   
   145  142  143 2   
   146  142  162 1   
   147  144  145 1   
   148  144  151 1   
   149  144  152 1   
   150  145  146 1   
   151  145  153 1   
   152  145  154 1   
   153  146  147 1   
   154  146  155 1   
   155  146  156 1   
   156  147  148 1   
   157  147  157 1   
   158  147  158 1   
   159  148  159 1   
   160  148  160 1   
   161  148  161 1   
   162  162  163 1   
   163  162  171 1   
   164  163  164 1   
   165  163  166 1   
   166  163  172 1   
   167  164  165 2   
   168  164  177 1   
   169  166  167 1   
   170  166  173 1   
   171  166  174 1   
   172  167  168 1   
   173  167  175 1   
   174  167  176 1   
   175  168  169 1   
   176  168  170 1   
   177  177  178 1   
   178  177  182 1   
   179  178  179 1   
   180  178  180 1   
   181  178  181 1   
   182  184  185 1   
   183  184  186 1   
   184  187  188 1   
   185  187  189 1   
   186  190  191 1   
   187  190  192 1   
@<TRIPOS>SUBSTRUCTURE
     1 MOL         1 TEMP              0 ****  ****    0 ROOT
