@<TRIPOS>MOLECULE
MOL
  201   193     1     0     0
SMALL
resp


@<TRIPOS>ATOM
      1 C1         -1.5920    2.6790    4.4860 c3        1 MOL     -0.455846
      2 C2         -2.9720    2.1030    4.1600 c         1 MOL      0.771857
      3 O1         -3.3030    0.9860    4.4880 o         1 MOL     -0.607157
      4 H1         -1.2860    2.3490    5.4780 hc        1 MOL      0.121573
      5 H2         -0.8690    2.3300    3.7490 hc        1 MOL      0.121573
      6 H3         -1.6380    3.7670    4.4640 hc        1 MOL      0.121573
      7 N1         -3.8240    2.9320    3.5300 n         1 MOL     -0.740369
      8 C3         -5.1840    2.6240    3.1700 c3        1 MOL      0.281571
      9 C4         -5.3520    1.3410    2.2310 c         1 MOL      0.477960
     10 O2         -4.5170    0.9940    1.3500 o         1 MOL     -0.538219
     11 C5         -5.8800    3.8640    2.6170 c3        1 MOL     -0.117562
     12 C6         -5.1700    4.4450    1.4260 c         1 MOL      0.723672
     13 O3         -5.4340    4.0340    0.2440 o         1 MOL     -0.736448
     14 O4         -4.2130    5.2250    1.6780 o         1 MOL     -0.736448
     15 H4         -3.4600    3.8380    3.3000 hn        1 MOL      0.431059
     16 H5         -5.7500    2.3040    4.0410 h1        1 MOL      0.004183
     17 H6         -5.9920    4.6110    3.4010 hc        1 MOL      0.023694
     18 H7         -6.8970    3.5230    2.3950 hc        1 MOL      0.023694
     19 N2         -6.5080    0.6640    2.4740 n         1 MOL     -0.482275
     20 C7         -6.7740   -0.6650    1.7680 c3        1 MOL      0.147281
     21 C8         -8.1910   -0.7560    1.0190 c         1 MOL      0.447864
     22 O5         -8.9150   -1.7370    1.1950 o         1 MOL     -0.579053
     23 C9         -6.4970   -1.8220    2.7510 c3        1 MOL     -0.069826
     24 C10        -6.0710   -3.1500    2.0630 c3        1 MOL     -0.166891
     25 C11        -5.9190   -4.0680    3.2640 c3        1 MOL     -0.122681
     26 C12        -5.4210   -5.4640    2.8180 c3        1 MOL      0.162913
     27 N3         -5.2690   -6.4900    3.8710 n4        1 MOL     -0.390816
     28 H8         -7.1800    0.9340    3.1710 hn        1 MOL      0.320081
     29 H9         -6.0550   -0.6870    0.9440 h1        1 MOL     -0.062073
     30 H10        -7.4000   -2.0980    3.2920 hc        1 MOL      0.051995
     31 H11        -5.7460   -1.5050    3.4780 hc        1 MOL      0.051995
     32 H12        -5.1190   -2.9450    1.5680 hc        1 MOL      0.121818
     33 H13        -6.8980   -3.4630    1.4370 hc        1 MOL      0.121818
     34 H14        -6.8660   -4.1010    3.7950 hc        1 MOL      0.057860
     35 H15        -5.1570   -3.6580    3.9330 hc        1 MOL      0.057860
     36 H16        -4.4590   -5.3730    2.3110 hx        1 MOL      0.043417
     37 H17        -6.0560   -5.8540    2.0150 hx        1 MOL      0.043417
     38 H18        -5.1660   -7.4370    3.5200 hn        1 MOL      0.310198
     39 H19        -4.4860   -6.2270    4.4430 hn        1 MOL      0.310198
     40 H20        -6.1190   -6.5570    4.4110 hn        1 MOL      0.310198
     41 N4         -8.4780    0.1600    0.1670 n         1 MOL     -0.224654
     42 C13        -9.7840    0.2910   -0.5000 c3        1 MOL      0.384297
     43 C14        -9.4940    0.4260   -2.0000 c         1 MOL      0.376798
     44 O6         -8.9350    1.4470   -2.4820 o         1 MOL     -0.499224
     45 C15       -10.5570    1.4800    0.0140 c3        1 MOL     -0.400636
     46 C16        -9.8340    2.8060    0.2420 c         1 MOL      0.763680
     47 O7        -10.5010    3.6340    0.8560 o         1 MOL     -0.687692
     48 O8         -8.6250    2.9930   -0.0560 o         1 MOL     -0.687692
     49 H21        -7.8090    0.8780   -0.0650 hn        1 MOL      0.082296
     50 H22       -10.4780   -0.5380   -0.3800 h1        1 MOL      0.012584
     51 H23       -10.8950    1.1990    1.0170 hc        1 MOL      0.094235
     52 H24       -11.3980    1.5780   -0.6740 hc        1 MOL      0.094235
     53 N5         -9.9580   -0.4970   -2.8500 n         1 MOL     -0.407259
     54 C17       -10.2970   -1.8640   -2.5240 c3        1 MOL     -0.179707
     55 C18        -9.0910   -2.6380   -2.0630 c         1 MOL      0.480705
     56 O9         -9.2870   -3.6910   -1.3820 o         1 MOL     -0.526703
     57 H25        -9.7610   -0.3780   -3.8340 hn        1 MOL      0.306821
     58 H26       -10.4980   -2.3760   -3.4550 h1        1 MOL      0.135884
     59 H27       -11.1540   -1.9560   -1.8730 h1        1 MOL      0.135884
     60 N6         -7.8690   -2.3870   -2.6010 n         1 MOL     -0.404574
     61 C19        -6.6120   -2.9080   -2.1950 c3        1 MOL      0.155368
     62 C20        -5.6350   -1.7310   -1.9420 c         1 MOL      0.467720
     63 O10        -5.8510   -0.6400   -2.4740 o         1 MOL     -0.551674
     64 C21        -6.0580   -3.8790   -3.3310 c3        1 MOL     -0.024945
     65 C22        -6.2420   -3.5580   -4.8210 c         1 MOL      0.667527
     66 O11        -5.4460   -2.7930   -5.3510 o         1 MOL     -0.689490
     67 O12        -7.1390   -4.1980   -5.4210 o         1 MOL     -0.689490
     68 H28        -7.9350   -1.5410   -3.1330 hn        1 MOL      0.288615
     69 H29        -6.7210   -3.5060   -1.2950 h1        1 MOL     -0.010510
     70 H30        -6.5250   -4.8490   -3.1650 hc        1 MOL     -0.017488
     71 H31        -5.0150   -4.0810   -3.0950 hc        1 MOL     -0.017488
     72 N7         -4.5120   -2.0590   -1.3040 n         1 MOL     -0.155536
     73 C23        -3.3510   -1.2780   -1.0850 c3        1 MOL     -0.324801
     74 C24        -2.2830   -2.1680   -0.4410 c         1 MOL      0.686482
     75 O13        -2.1660   -3.3180   -0.8530 o         1 MOL     -0.559936
     76 H32        -4.3400   -3.0270   -1.0730 hn        1 MOL      0.174633
     77 H33        -3.5950   -0.4660   -0.4090 h1        1 MOL      0.127586
     78 H34        -2.9140   -0.8480   -1.9840 h1        1 MOL      0.127586
     79 N8         -1.6150   -1.6860    0.5620 n         1 MOL     -0.543751
     80 C25        -0.7330   -2.3910    1.4260 c3        1 MOL      0.005989
     81 C26         0.3970   -1.3580    1.7760 c         1 MOL      0.644520
     82 O14         0.3120   -0.1680    1.5140 o         1 MOL     -0.499400
     83 C27        -1.4430   -2.7720    2.7480 c3        1 MOL      0.352006
     84 C28        -2.3700   -1.6590    3.2990 c3        1 MOL     -0.699207
     85 O15        -2.1700   -3.9830    2.7900 oh        1 MOL     -0.547785
     86 H35        -1.9020   -0.7320    0.7440 hn        1 MOL      0.321833
     87 H36        -0.2670   -3.2830    1.0090 h1        1 MOL      0.071016
     88 H37        -0.6540   -3.0630    3.4430 h1        1 MOL     -0.050290
     89 H38        -1.7830   -4.5340    2.1090 ho        1 MOL      0.342339
     90 H39        -3.3190   -1.6580    2.7660 hc        1 MOL      0.214632
     91 H40        -2.5680   -1.9310    4.3370 hc        1 MOL      0.214632
     92 H41        -1.9230   -0.6670    3.2030 hc        1 MOL      0.214632
     93 N9          1.4650   -1.8290    2.4170 n         1 MOL     -0.602629
     94 C29         2.5770   -1.0070    3.0270 c3        1 MOL     -0.008941
     95 C30         3.5500   -0.5150    1.9170 c         1 MOL      0.619064
     96 O16         3.9230    0.6030    1.9910 o         1 MOL     -0.512545
     97 C31         3.1920   -1.6380    4.2740 c3        1 MOL      0.071291
     98 C32         2.0360   -2.2720    5.1310 c3        1 MOL     -0.001085
     99 C33         3.8650   -0.4370    5.0340 c3        1 MOL     -0.383651
    100 C34         2.5300   -3.1500    6.2110 c3        1 MOL     -0.248005
    101 H42         1.5540   -2.8100    2.6090 hn        1 MOL      0.307191
    102 H43         1.9980   -0.1800    3.4230 h1        1 MOL      0.088633
    103 H44         3.8730   -2.4170    3.9380 hc        1 MOL      0.033772
    104 H45         1.4030   -2.9880    4.6070 hc        1 MOL      0.058361
    105 H46         1.5230   -1.4800    5.6760 hc        1 MOL      0.058361
    106 H47         4.6470    0.0480    4.4480 hc        1 MOL      0.119988
    107 H48         3.1700    0.3660    5.2720 hc        1 MOL      0.119988
    108 H49         4.2520   -0.7120    6.0090 hc        1 MOL      0.119988
    109 H50         1.7470   -3.4950    6.8940 hc        1 MOL      0.059401
    110 H51         2.9640   -4.0470    5.7670 hc        1 MOL      0.059401
    111 H52         3.2080   -2.6700    6.9220 hc        1 MOL      0.059401
    112 N10         3.7470   -1.3200    0.8470 n         1 MOL     -0.478997
    113 C35         4.6850   -1.1200   -0.2100 c3        1 MOL      0.022592
    114 C36         5.6800   -2.2730   -0.4230 c         1 MOL      0.574281
    115 O17         5.3670   -3.4520   -0.1530 o         1 MOL     -0.547614
    116 C37         4.0600   -0.6320   -1.5210 c3        1 MOL      0.422095
    117 C38         2.9870    0.4150   -1.2060 c3        1 MOL     -0.457489
    118 O18         4.9660   -0.0170   -2.2930 oh        1 MOL     -0.616504
    119 H53         3.2780   -2.2160    0.8350 hn        1 MOL      0.242060
    120 H54         5.4040   -0.3630    0.1160 h1        1 MOL      0.073893
    121 H55         3.7030   -1.5010   -2.0840 h1        1 MOL     -0.029442
    122 H56         4.5420    0.0430   -3.1510 ho        1 MOL      0.405215
    123 H57         2.6030    0.8510   -2.1320 hc        1 MOL      0.127556
    124 H58         2.1770   -0.1250   -0.7160 hc        1 MOL      0.127556
    125 H59         3.4340    1.1990   -0.5870 hc        1 MOL      0.127556
    126 N11         6.9060   -1.9520   -0.8140 n         1 MOL     -0.462841
    127 C39         7.8380   -3.0480   -1.1520 c3        1 MOL     -0.109467
    128 C40         9.3100   -2.6270   -1.0120 c         1 MOL      0.600861
    129 O19        10.1120   -3.4140   -0.5040 o         1 MOL     -0.562139
    130 C41         7.7010   -3.5420   -2.5960 c3        1 MOL      0.184375
    131 C42         7.7370   -2.4020   -3.6500 c3        1 MOL      0.019120
    132 O20         6.3900   -3.9860   -2.8300 oh        1 MOL     -0.581021
    133 H60         7.1620   -1.0160   -1.0930 hn        1 MOL      0.298366
    134 H61         7.7240   -3.8940   -0.4740 h1        1 MOL      0.135093
    135 H62         8.4080   -4.3170   -2.8840 h1        1 MOL      0.037487
    136 H63         6.1510   -4.6670   -2.1960 ho        1 MOL      0.394830
    137 H64         7.0540   -1.6070   -3.3590 hc        1 MOL      0.000326
    138 H65         8.7550   -2.0290   -3.6980 hc        1 MOL      0.000326
    139 H66         7.4330   -2.7100   -4.6580 hc        1 MOL      0.000326
    140 N12         9.6780   -1.3860   -1.2850 n         1 MOL     -0.400932
    141 C43        11.0220   -0.7830   -1.0780 c3        1 MOL     -0.045558
    142 C44        10.8510    0.7500   -1.1130 c         1 MOL      0.547961
    143 O21        10.3490    1.2630   -2.0790 o         1 MOL     -0.538141
    144 C45        11.9770   -1.4300   -2.1810 c3        1 MOL     -0.318848
    145 C46        13.3230   -0.5660   -2.1200 c3        1 MOL      0.290484
    146 C47        14.3510   -1.0700   -3.0940 c3        1 MOL     -0.025607
    147 C48        15.5770   -0.2150   -2.9340 c3        1 MOL      0.149166
    148 N13        16.5190   -0.5200   -3.9540 n4        1 MOL     -0.378605
    149 H67         9.0390   -0.7520   -1.7270 hn        1 MOL      0.272058
    150 H68        11.4480   -0.8710   -0.0870 h1        1 MOL      0.062767
    151 H69        11.4460   -1.2780   -3.1260 hc        1 MOL      0.114590
    152 H70        12.1340   -2.5050   -2.0950 hc        1 MOL      0.114590
    153 H71        13.8090   -0.5910   -1.1540 hc        1 MOL     -0.055085
    154 H72        13.1170    0.4840   -2.3290 hc        1 MOL     -0.055085
    155 H73        13.9520   -0.9060   -4.0990 hc        1 MOL      0.004821
    156 H74        14.5620   -2.1200   -2.9070 hc        1 MOL      0.004821
    157 H75        15.9810   -0.3220   -1.9360 hx        1 MOL      0.063985
    158 H76        15.3840    0.8550   -3.0980 hx        1 MOL      0.063985
    159 H77        16.9920   -1.3820   -3.7230 hn        1 MOL      0.306516
    160 H78        16.0620   -0.6320   -4.8540 hn        1 MOL      0.306516
    161 H79        17.1810    0.2330   -4.0380 hn        1 MOL      0.306516
    162 N14        11.3240    1.5220   -0.1690 n         1 MOL     -0.352747
    163 C49        11.1610    2.9140    0.0230 c3        1 MOL      0.180724
    164 C50         9.7960    3.3820    0.5940 c         1 MOL      0.440247
    165 O22         9.0470    4.0830   -0.1260 o         1 MOL     -0.529944
    166 C51        12.3110    3.5760    0.8300 c3        1 MOL     -0.006943
    167 C52        13.6570    3.3650    0.1990 c3        1 MOL     -0.052708
    168 C53        14.7650    4.0410    0.9960 c         1 MOL      0.596942
    169 O23        15.4890    3.2540    1.6700 o         1 MOL     -0.661856
    170 O24        14.9000    5.3060    0.8880 o         1 MOL     -0.661856
    171 H80        11.8730    1.0610    0.5480 hn        1 MOL      0.262183
    172 H81        11.2980    3.4020   -0.9430 h1        1 MOL      0.044749
    173 H82        12.4120    3.0080    1.7500 hc        1 MOL      0.033570
    174 H83        12.1790    4.6370    1.0590 hc        1 MOL      0.033570
    175 H84        13.6980    3.7120   -0.8420 hc        1 MOL     -0.044482
    176 H85        13.8850    2.3060    0.1780 hc        1 MOL     -0.044482
    177 N15         9.4060    3.0590    1.8550 n         1 MOL     -0.475900
    178 C54        10.0020    2.1000    2.7990 c3        1 MOL      0.074373
    179 H86         9.6200    2.2930    3.8020 h1        1 MOL      0.019155
    180 H87         9.7420    1.0840    2.5000 h1        1 MOL      0.019155
    181 H88        11.0870    2.2140    2.7970 h1        1 MOL      0.019155
    182 H89         8.4680    3.3480    2.0950 hn        1 MOL      0.325525
    183 Ca1        -7.1580    3.6760   -1.9490 Ca        1 MOL      1.638893
    184 O25        -6.6960    5.5200   -3.9770 oh        1 MOL     -0.825531
    185 H90        -7.0370    5.5810   -4.8650 ho        1 MOL      0.411525
    186 H91        -5.7500    5.5210   -4.0800 ho        1 MOL      0.411525
    187 O26        -8.1230    6.0670   -0.9570 oh        1 MOL     -0.825531
    188 O27        -5.8660    1.5130   -0.9930 oh        1 MOL     -0.825531
    189 H92        -7.9880    6.0350   -0.0120 ho        1 MOL      0.411525
    190 H93        -5.5470    0.6990   -1.3740 ho        1 MOL      0.411525
    191 H94        -8.3310    6.9850   -1.1390 ho        1 MOL      0.411525
    192 H95        -5.1510    1.8090   -0.4230 ho        1 MOL      0.411525
    193 O28        -6.6120    2.5360   -4.2680 oh        1 MOL     -0.825531
    194 H96        -6.8680    1.6600   -4.5480 ho        1 MOL      0.411525
    195 H97        -5.9950    2.8320   -4.9300 ho        1 MOL      0.411525
    196 O29        -5.0330    5.5510   -1.7130 oh        1 MOL     -0.825531
    197 H98        -4.9730    5.0350   -0.9070 ho        1 MOL      0.411525
    198 H99        -4.1890    5.9980   -1.7740 ho        1 MOL      0.411525
    199 O30        -9.5710    4.6190   -3.1300 oh        1 MOL     -0.825531
    200 H100      -10.5120    4.4890   -3.0110 ho        1 MOL      0.411525
    201 H101       -9.4930    5.5000   -3.5100 ho        1 MOL      0.411525
@<TRIPOS>BOND
     1    1    2 1   
     2    1    4 1   
     3    1    5 1   
     4    1    6 1   
     5    2    3 2   
     6    2    7 1   
     7    7    8 1   
     8    7   15 1   
     9    8    9 1   
    10    8   11 1   
    11    8   16 1   
    12    9   10 2   
    13    9   19 1   
    14   11   12 1   
    15   11   17 1   
    16   11   18 1   
    17   12   13 1   
    18   12   14 1   
    19   19   20 1   
    20   19   28 1   
    21   20   21 1   
    22   20   23 1   
    23   20   29 1   
    24   21   22 2   
    25   21   41 1   
    26   23   24 1   
    27   23   30 1   
    28   23   31 1   
    29   24   25 1   
    30   24   32 1   
    31   24   33 1   
    32   25   26 1   
    33   25   34 1   
    34   25   35 1   
    35   26   27 1   
    36   26   36 1   
    37   26   37 1   
    38   27   38 1   
    39   27   39 1   
    40   27   40 1   
    41   41   42 1   
    42   41   49 1   
    43   42   43 1   
    44   42   45 1   
    45   42   50 1   
    46   43   44 2   
    47   43   53 1   
    48   45   46 1   
    49   45   51 1   
    50   45   52 1   
    51   46   47 1   
    52   46   48 1   
    53   53   54 1   
    54   53   57 1   
    55   54   55 1   
    56   54   58 1   
    57   54   59 1   
    58   55   56 2   
    59   55   60 1   
    60   60   61 1   
    61   60   68 1   
    62   61   62 1   
    63   61   64 1   
    64   61   69 1   
    65   62   63 2   
    66   62   72 1   
    67   64   65 1   
    68   64   70 1   
    69   64   71 1   
    70   65   66 1   
    71   65   67 1   
    72   72   73 1   
    73   72   76 1   
    74   73   74 1   
    75   73   77 1   
    76   73   78 1   
    77   74   75 2   
    78   74   79 1   
    79   79   80 1   
    80   79   86 1   
    81   80   81 1   
    82   80   83 1   
    83   80   87 1   
    84   81   82 2   
    85   81   93 1   
    86   83   84 1   
    87   83   85 1   
    88   83   88 1   
    89   84   90 1   
    90   84   91 1   
    91   84   92 1   
    92   85   89 1   
    93   93   94 1   
    94   93  101 1   
    95   94   95 1   
    96   94   97 1   
    97   94  102 1   
    98   95   96 2   
    99   95  112 1   
   100   97   98 1   
   101   97   99 1   
   102   97  103 1   
   103   98  100 1   
   104   98  104 1   
   105   98  105 1   
   106   99  106 1   
   107   99  107 1   
   108   99  108 1   
   109  100  109 1   
   110  100  110 1   
   111  100  111 1   
   112  112  113 1   
   113  112  119 1   
   114  113  114 1   
   115  113  116 1   
   116  113  120 1   
   117  114  115 2   
   118  114  126 1   
   119  116  117 1   
   120  116  118 1   
   121  116  121 1   
   122  117  123 1   
   123  117  124 1   
   124  117  125 1   
   125  118  122 1   
   126  126  127 1   
   127  126  133 1   
   128  127  128 1   
   129  127  130 1   
   130  127  134 1   
   131  128  129 2   
   132  128  140 1   
   133  130  131 1   
   134  130  132 1   
   135  130  135 1   
   136  131  137 1   
   137  131  138 1   
   138  131  139 1   
   139  132  136 1   
   140  140  141 1   
   141  140  149 1   
   142  141  142 1   
   143  141  144 1   
   144  141  150 1   
   145  142  143 2   
   146  142  162 1   
   147  144  145 1   
   148  144  151 1   
   149  144  152 1   
   150  145  146 1   
   151  145  153 1   
   152  145  154 1   
   153  146  147 1   
   154  146  155 1   
   155  146  156 1   
   156  147  148 1   
   157  147  157 1   
   158  147  158 1   
   159  148  159 1   
   160  148  160 1   
   161  148  161 1   
   162  162  163 1   
   163  162  171 1   
   164  163  164 1   
   165  163  166 1   
   166  163  172 1   
   167  164  165 2   
   168  164  177 1   
   169  166  167 1   
   170  166  173 1   
   171  166  174 1   
   172  167  168 1   
   173  167  175 1   
   174  167  176 1   
   175  168  169 1   
   176  168  170 1   
   177  177  178 1   
   178  177  182 1   
   179  178  179 1   
   180  178  180 1   
   181  178  181 1   
   182  184  185 1   
   183  184  186 1   
   184  187  189 1   
   185  187  191 1   
   186  188  190 1   
   187  188  192 1   
   188  193  194 1   
   189  193  195 1   
   190  196  197 1   
   191  196  198 1   
   192  199  200 1   
   193  199  201 1   
@<TRIPOS>SUBSTRUCTURE
     1 MOL         1 TEMP              0 ****  ****    0 ROOT
