@<TRIPOS>MOLECULE
MOL
  181   177     1     0     0
SMALL
resp


@<TRIPOS>ATOM
      1 C1          5.1620   -5.8060    4.6090 c3        1 MOL     -0.340137
      2 C2          4.5410   -4.6820    3.7800 c         1 MOL      0.638394
      3 O1          3.7840   -3.8650    4.3070 o         1 MOL     -0.579068
      4 H1          4.9660   -5.6280    5.6660 hc        1 MOL      0.071402
      5 H2          4.7230   -6.7590    4.3150 hc        1 MOL      0.071402
      6 H3          6.2370   -5.8320    4.4380 hc        1 MOL      0.071402
      7 N1          4.7970   -4.5890    2.5170 n         1 MOL     -0.182587
      8 C3          5.5880   -5.4610    1.6980 c3        1 MOL     -0.143952
      9 C4          4.9640   -5.6300    0.2840 c         1 MOL      0.523475
     10 O2          3.7680   -5.3170    0.0970 o         1 MOL     -0.479875
     11 C5          7.0600   -4.8890    1.6630 c3        1 MOL     -0.167779
     12 C6          7.1660   -3.4520    1.1450 c         1 MOL      0.688318
     13 O3          7.2850   -3.2780   -0.1040 o         1 MOL     -0.719890
     14 O4          7.1790   -2.4370    1.8930 o         1 MOL     -0.719890
     15 H4          4.3800   -3.8340    1.9910 hn        1 MOL      0.124955
     16 H5          5.6340   -6.4710    2.1000 h1        1 MOL      0.093565
     17 H6          7.6100   -5.5340    0.9710 hc        1 MOL      0.018845
     18 H7          7.6420   -4.9580    2.5880 hc        1 MOL      0.018845
     19 N2          5.7680   -5.9200   -0.7000 n         1 MOL     -0.501768
     20 C7          5.6420   -5.7610   -2.1410 c3        1 MOL      0.219722
     21 C8          5.2360   -4.4310   -2.6790 c         1 MOL      0.339678
     22 O5          5.5890   -4.1180   -3.8390 o         1 MOL     -0.549847
     23 C9          4.8830   -6.9660   -2.7210 c3        1 MOL     -0.387540
     24 H8          6.7010   -6.1390   -0.3710 hn        1 MOL      0.314351
     25 H9          6.6430   -5.8730   -2.5630 h1        1 MOL      0.039323
     26 H10         4.6980   -6.8530   -3.7840 hc        1 MOL      0.107210
     27 H11         5.4260   -7.8720   -2.4420 hc        1 MOL      0.107210
     28 H12         3.9130   -7.0540   -2.2220 hc        1 MOL      0.107210
     29 N3          4.6070   -3.6260   -1.8560 n         1 MOL      0.003854
     30 C10         4.1160   -2.2420   -2.2530 c3        1 MOL     -0.341893
     31 C11         5.2080   -1.3440   -2.8340 c         1 MOL      0.673178
     32 O6          6.4170   -1.4860   -2.5000 o         1 MOL     -0.547784
     33 C12         3.4070   -1.5820   -1.0840 c3        1 MOL      0.056461
     34 C13         4.0730   -1.6150    0.2650 c         1 MOL      0.405435
     35 O7          4.9400   -0.7750    0.4470 o         1 MOL     -0.495963
     36 O8          3.6810   -2.3760    1.2250 o         1 MOL     -0.495963
     37 H13         4.3200   -3.9220   -0.9270 hn        1 MOL      0.156984
     38 H14         3.3890   -2.4030   -3.0490 h1        1 MOL      0.122281
     39 H15         2.5050   -2.1630   -0.8930 hc        1 MOL      0.034719
     40 H16         3.1090   -0.5810   -1.4000 hc        1 MOL      0.034719
     41 N4          4.8010   -0.1570   -3.4190 n         1 MOL     -0.554848
     42 C14         5.6250    1.0130   -3.6370 c3        1 MOL     -0.028041
     43 C15         5.9800    1.8240   -2.3870 c         1 MOL      0.788070
     44 O9          6.2760    1.1940   -1.3630 o         1 MOL     -0.746351
     45 H17         3.8070    0.0350   -3.4470 hn        1 MOL      0.330586
     46 H18         5.0550    1.7320   -4.2240 h1        1 MOL      0.074342
     47 H19         6.5140    0.8050   -4.2280 h1        1 MOL      0.074342
     48 N5          5.9500    3.1260   -2.5060 n         1 MOL     -0.794343
     49 C16         5.9260    4.0960   -1.4010 c3        1 MOL      0.450525
     50 C17         4.7010    4.0730   -0.4050 c         1 MOL      0.582489
     51 O10         3.7090    3.4160   -0.6650 o         1 MOL     -0.467498
     52 C18         6.1720    5.5370   -1.8760 c3        1 MOL     -0.353707
     53 C19         7.4860    5.5450   -2.7190 c         1 MOL      0.817784
     54 N6          8.5470    6.0460   -2.0460 n         1 MOL     -0.946786
     55 O11         7.4800    5.2470   -3.8800 o         1 MOL     -0.567944
     56 H20         5.6040    3.5480   -3.3460 hn        1 MOL      0.356065
     57 H21         6.8160    3.8730   -0.8220 h1        1 MOL     -0.140212
     58 H22         6.1300    6.2530   -1.0560 hc        1 MOL      0.093776
     59 H23         5.2910    5.7590   -2.4710 hc        1 MOL      0.093776
     60 H24         8.5250    6.2730   -1.0650 hn        1 MOL      0.390366
     61 H25         9.3480    6.2830   -2.6140 hn        1 MOL      0.390366
     62 N7          4.7280    4.8470    0.6740 n         1 MOL     -0.544303
     63 C20         3.7190    5.0310    1.7520 c3        1 MOL      0.002665
     64 C21         2.6430    5.9780    1.2770 c         1 MOL      0.650175
     65 O12         2.8920    6.7980    0.3760 o         1 MOL     -0.576166
     66 H26         5.5500    5.4120    0.7650 hn        1 MOL      0.263316
     67 H27         4.0700    5.3590    2.7330 h1        1 MOL      0.105276
     68 H28         3.3030    4.0450    1.9460 h1        1 MOL      0.105276
     69 N8          1.4280    6.0660    1.8560 n         1 MOL     -0.651159
     70 C22         0.8190    4.9480    2.6550 c3        1 MOL      0.006768
     71 C23        -0.1680    4.0730    1.8330 c         1 MOL      0.695344
     72 O13        -0.5250    4.5070    0.7510 o         1 MOL     -0.588234
     73 C24         0.0840    5.3920    4.0350 c3        1 MOL      0.312808
     74 C25        -1.2900    5.9530    3.8480 c3        1 MOL     -0.184157
     75 O14        -0.1020    4.2140    4.7390 oh        1 MOL     -0.568955
     76 H29         0.7910    6.6890    1.3690 hn        1 MOL      0.368704
     77 H30         1.5920    4.2180    2.8720 h1        1 MOL     -0.028293
     78 H31         0.7030    6.1220    4.5600 h1        1 MOL     -0.027106
     79 H32         0.3220    4.3280    5.6000 ho        1 MOL      0.375288
     80 H33        -1.2740    6.9590    3.4100 hc        1 MOL      0.056008
     81 H34        -1.8570    5.3340    3.1530 hc        1 MOL      0.056008
     82 H35        -1.7550    6.1010    4.8270 hc        1 MOL      0.056008
     83 N9         -0.4860    2.8450    2.0930 n         1 MOL     -0.465813
     84 C26        -1.3860    1.9820    1.3220 c3        1 MOL      0.171631
     85 C27        -2.5600    1.7140    2.2550 c         1 MOL      0.488272
     86 O15        -2.3670    1.6830    3.4780 o         1 MOL     -0.578959
     87 C28        -0.6410    0.6740    0.8440 c3        1 MOL      0.005640
     88 C29         0.4330    0.8450   -0.2500 c3        1 MOL     -0.002343
     89 C30        -1.5550   -0.4890    0.4510 c3        1 MOL     -0.083200
     90 C31        -0.1290    1.6990   -1.3440 c3        1 MOL     -0.045420
     91 H36        -0.3100    2.5230    3.0350 hn        1 MOL      0.250688
     92 H37        -1.6990    2.5610    0.4520 h1        1 MOL      0.076367
     93 H38        -0.0990    0.4290    1.7630 hc        1 MOL     -0.002903
     94 H39         0.7150   -0.1680   -0.5350 hc        1 MOL      0.016715
     95 H40         1.2650    1.3830    0.2040 hc        1 MOL      0.016715
     96 H41        -2.4390   -0.6250    1.0720 hc        1 MOL      0.040134
     97 H42        -1.8170   -0.4230   -0.6070 hc        1 MOL      0.040134
     98 H43        -0.9600   -1.3930    0.5460 hc        1 MOL      0.040134
     99 H44        -0.5550    2.6720   -1.1210 hc        1 MOL     -0.005201
    100 H45         0.6660    1.9270   -2.0550 hc        1 MOL     -0.005201
    101 H46        -0.8820    1.1490   -1.9180 hc        1 MOL     -0.005201
    102 N10        -3.8090    1.5750    1.8060 n         1 MOL     -0.242603
    103 C32        -4.3760    1.8170    0.4840 c3        1 MOL     -0.028489
    104 C33        -5.6970    1.0650    0.2500 c         1 MOL      0.546380
    105 O16        -6.3620    0.5870    1.1670 o         1 MOL     -0.510236
    106 C34        -4.6620    3.3620    0.2720 c3        1 MOL      0.029158
    107 C35        -5.1180    4.2010    1.4250 c         1 MOL      0.659041
    108 O17        -5.0210    5.4540    1.2480 o         1 MOL     -0.716810
    109 O18        -5.6100    3.6630    2.4550 o         1 MOL     -0.716810
    110 H47        -4.4260    1.2430    2.5420 hn        1 MOL      0.249296
    111 H48        -3.7790    1.4370   -0.3440 h1        1 MOL      0.000898
    112 H49        -5.2910    3.6580   -0.5730 hc        1 MOL     -0.037652
    113 H50        -3.7150    3.8550    0.0380 hc        1 MOL     -0.037652
    114 N11        -6.0460    1.0730   -1.0380 n         1 MOL     -0.517732
    115 C36        -7.3800    0.7780   -1.4810 c3        1 MOL      0.425718
    116 C37        -7.5320   -0.6280   -2.1670 c         1 MOL      0.197790
    117 O19        -6.8450   -0.9850   -3.1110 o         1 MOL     -0.503481
    118 C38        -7.7940    1.9180   -2.4830 c3        1 MOL     -0.182942
    119 C39        -9.2350    1.7770   -2.9310 ca        1 MOL      0.065065
    120 C40        -9.7120    1.1580   -4.1370 ca        1 MOL     -0.166205
    121 C41       -10.2300    2.0820   -1.9990 ca        1 MOL     -0.166205
    122 C42       -11.0500    0.8670   -4.4070 ca        1 MOL     -0.110715
    123 C43       -11.5950    1.8600   -2.2620 ca        1 MOL     -0.110715
    124 C44       -12.0060    1.2490   -3.4640 ca        1 MOL     -0.121599
    125 H51        -5.4120    1.3740   -1.7690 hn        1 MOL      0.291824
    126 H52        -8.0340    0.8270   -0.6140 h1        1 MOL     -0.022140
    127 H53        -7.1270    1.9450   -3.3390 hc        1 MOL      0.066486
    128 H54        -7.6060    2.8570   -1.9630 hc        1 MOL      0.066486
    129 H55        -8.9950    0.8750   -4.8920 ha        1 MOL      0.122504
    130 H56        -9.9330    2.4380   -1.0180 ha        1 MOL      0.122504
    131 H57       -11.3580    0.4000   -5.3280 ha        1 MOL      0.106903
    132 H58       -12.3600    2.1340   -1.5420 ha        1 MOL      0.106903
    133 H59       -13.0760    1.1950   -3.6630 ha        1 MOL      0.091089
    134 N12        -8.6030   -1.3910   -1.8090 n         1 MOL      0.257590
    135 C45        -9.5380   -1.1870   -0.6550 c3        1 MOL     -0.016876
    136 C46        -8.9520   -1.6470    0.7450 c         1 MOL      0.482831
    137 O20        -9.5120   -1.3150    1.8190 o         1 MOL     -0.549805
    138 C47       -10.7380   -2.1460   -1.0200 c3        1 MOL     -0.283326
    139 C48       -10.5420   -2.4510   -2.5050 c3        1 MOL      0.171278
    140 C49        -9.1570   -2.3770   -2.7580 c3        1 MOL     -0.229091
    141 H60        -9.8750   -0.1540   -0.6790 h1        1 MOL      0.051605
    142 H61       -10.6180   -3.0780   -0.4720 hc        1 MOL      0.083201
    143 H62       -11.7230   -1.7340   -0.8270 hc        1 MOL      0.083201
    144 H63       -10.9910   -3.3740   -2.8650 hc        1 MOL     -0.014919
    145 H64       -11.1180   -1.7550   -3.1140 hc        1 MOL     -0.014919
    146 H65        -8.6380   -3.2650   -2.4070 h1        1 MOL      0.067591
    147 H66        -9.0050   -2.0760   -3.7940 h1        1 MOL      0.067591
    148 N13        -7.8030   -2.3310    0.6250 n         1 MOL     -0.340774
    149 C50        -6.9670   -3.0030    1.6810 c3        1 MOL      0.156994
    150 C51        -7.7810   -4.1030    2.3990 c         1 MOL      0.336607
    151 O21        -8.1690   -5.1530    1.8210 o         1 MOL     -0.560282
    152 C52        -5.7680   -3.6380    0.9900 c3        1 MOL      0.047100
    153 C53        -4.8080   -2.5790    0.4350 c3        1 MOL     -0.012705
    154 C54        -3.7960   -3.2290   -0.4600 c         1 MOL      0.625875
    155 O22        -3.9700   -3.3940   -1.6950 o         1 MOL     -0.639024
    156 O23        -2.7370   -3.7700    0.0360 o         1 MOL     -0.639024
    157 H67        -7.3690   -2.3360   -0.2940 hn        1 MOL      0.216321
    158 H68        -6.5430   -2.3410    2.4310 h1        1 MOL      0.071587
    159 H69        -6.0640   -4.3840    0.2540 hc        1 MOL      0.003914
    160 H70        -5.1040   -4.0660    1.7570 hc        1 MOL      0.003914
    161 H71        -4.3050   -2.0570    1.2530 hc        1 MOL     -0.060114
    162 H72        -5.3200   -1.7940   -0.1210 hc        1 MOL     -0.060114
    163 N14        -8.1430   -3.9890    3.6820 n         1 MOL     -0.255490
    164 C55        -8.0100   -2.8250    4.5870 c3        1 MOL     -0.169797
    165 H73        -7.1200   -2.9450    5.2050 h1        1 MOL      0.087391
    166 H74        -7.9210   -1.9130    3.9970 h1        1 MOL      0.087391
    167 H75        -8.8890   -2.7590    5.2280 h1        1 MOL      0.087391
    168 H76        -8.4920   -4.8600    4.0570 hn        1 MOL      0.244769
    169 Ca1         7.5050   -0.6320    0.0070 Ca        1 MOL      1.801260
    170 O24         6.8550    0.8970    2.2270 oh        1 MOL     -0.819161
    171 H77         6.3130    1.6940    2.2100 ho        1 MOL      0.382778
    172 H78         7.6990    1.2020    2.5600 ho        1 MOL      0.382778
    173 O25         8.6650    1.9670   -0.0620 oh        1 MOL     -0.819161
    174 H79         8.7500    2.8940    0.1830 ho        1 MOL      0.382778
    175 H80         9.0780    1.9150   -0.9300 ho        1 MOL      0.382778
    176 O26         9.8890   -1.3290    1.0810 oh        1 MOL     -0.819161
    177 H81        10.4770   -0.9720    1.7440 ho        1 MOL      0.382778
    178 H82        10.0850   -2.2710    1.0700 ho        1 MOL      0.382778
    179 O27         9.1960   -0.4040   -2.0620 oh        1 MOL     -0.819161
    180 H83         9.9930   -0.9430   -2.0570 ho        1 MOL      0.382778
    181 H84         9.4070    0.3230   -2.6440 ho        1 MOL      0.382778
@<TRIPOS>BOND
     1    1    2 1   
     2    1    4 1   
     3    1    5 1   
     4    1    6 1   
     5    2    3 2   
     6    2    7 1   
     7    7    8 1   
     8    7   15 1   
     9    8    9 1   
    10    8   11 1   
    11    8   16 1   
    12    9   10 2   
    13    9   19 1   
    14   11   12 1   
    15   11   17 1   
    16   11   18 1   
    17   12   13 1   
    18   12   14 1   
    19   19   20 1   
    20   19   24 1   
    21   20   21 1   
    22   20   23 1   
    23   20   25 1   
    24   21   22 2   
    25   21   29 1   
    26   23   26 1   
    27   23   27 1   
    28   23   28 1   
    29   29   30 1   
    30   29   37 1   
    31   30   31 1   
    32   30   33 1   
    33   30   38 1   
    34   31   32 2   
    35   31   41 1   
    36   33   34 1   
    37   33   39 1   
    38   33   40 1   
    39   34   35 1   
    40   34   36 1   
    41   41   42 1   
    42   41   45 1   
    43   42   43 1   
    44   42   46 1   
    45   42   47 1   
    46   43   44 2   
    47   43   48 1   
    48   48   49 1   
    49   48   56 1   
    50   49   50 1   
    51   49   52 1   
    52   49   57 1   
    53   50   51 2   
    54   50   62 1   
    55   52   53 1   
    56   52   58 1   
    57   52   59 1   
    58   53   54 1   
    59   53   55 2   
    60   54   60 1   
    61   54   61 1   
    62   62   63 1   
    63   62   66 1   
    64   63   64 1   
    65   63   67 1   
    66   63   68 1   
    67   64   65 2   
    68   64   69 1   
    69   69   70 1   
    70   69   76 1   
    71   70   71 1   
    72   70   73 1   
    73   70   77 1   
    74   71   72 2   
    75   71   83 1   
    76   73   74 1   
    77   73   75 1   
    78   73   78 1   
    79   74   80 1   
    80   74   81 1   
    81   74   82 1   
    82   75   79 1   
    83   83   84 1   
    84   83   91 1   
    85   84   85 1   
    86   84   87 1   
    87   84   92 1   
    88   85   86 2   
    89   85  102 1   
    90   87   88 1   
    91   87   89 1   
    92   87   93 1   
    93   88   90 1   
    94   88   94 1   
    95   88   95 1   
    96   89   96 1   
    97   89   97 1   
    98   89   98 1   
    99   90   99 1   
   100   90  100 1   
   101   90  101 1   
   102  102  103 1   
   103  102  110 1   
   104  103  104 1   
   105  103  106 1   
   106  103  111 1   
   107  104  105 2   
   108  104  114 1   
   109  106  107 1   
   110  106  112 1   
   111  106  113 1   
   112  107  108 1   
   113  107  109 1   
   114  114  115 1   
   115  114  125 1   
   116  115  116 1   
   117  115  118 1   
   118  115  126 1   
   119  116  117 2   
   120  116  134 1   
   121  118  119 1   
   122  118  127 1   
   123  118  128 1   
   124  119  120 ar  
   125  119  121 ar  
   126  120  122 ar  
   127  120  129 1   
   128  121  123 ar  
   129  121  130 1   
   130  122  124 ar  
   131  122  131 1   
   132  123  124 ar  
   133  123  132 1   
   134  124  133 1   
   135  134  135 1   
   136  134  140 1   
   137  135  136 1   
   138  135  138 1   
   139  135  141 1   
   140  136  137 2   
   141  136  148 1   
   142  138  139 1   
   143  138  142 1   
   144  138  143 1   
   145  139  140 1   
   146  139  144 1   
   147  139  145 1   
   148  140  146 1   
   149  140  147 1   
   150  148  149 1   
   151  148  157 1   
   152  149  150 1   
   153  149  152 1   
   154  149  158 1   
   155  150  151 2   
   156  150  163 1   
   157  152  153 1   
   158  152  159 1   
   159  152  160 1   
   160  153  154 1   
   161  153  161 1   
   162  153  162 1   
   163  154  155 1   
   164  154  156 1   
   165  163  164 1   
   166  163  168 1   
   167  164  165 1   
   168  164  166 1   
   169  164  167 1   
   170  170  171 1   
   171  170  172 1   
   172  173  174 1   
   173  173  175 1   
   174  176  177 1   
   175  176  178 1   
   176  179  180 1   
   177  179  181 1   
@<TRIPOS>SUBSTRUCTURE
     1 MOL         1 TEMP              0 ****  ****    0 ROOT
