@<TRIPOS>MOLECULE
MOL
  195   189     1     0     0
SMALL
resp


@<TRIPOS>ATOM
      1 C1        -12.4880   -3.2230   -3.1920 c3        1 MOL     -0.595719
      2 C2        -11.8430   -2.1970   -2.2310 c         1 MOL      0.804721
      3 O1        -11.7040   -1.0120   -2.6190 o         1 MOL     -0.635367
      4 H1        -11.7070   -3.8240   -3.6580 hc        1 MOL      0.153749
      5 H2        -13.1610   -3.8720   -2.6340 hc        1 MOL      0.153749
      6 H3        -13.0480   -2.6960   -3.9650 hc        1 MOL      0.153749
      7 N1        -11.6040   -2.5490   -0.9660 n         1 MOL     -0.593274
      8 C3        -10.9290   -1.6670    0.1070 c3        1 MOL     -0.016823
      9 C4         -9.4550   -1.3120   -0.3250 c         1 MOL      0.575814
     10 O2         -8.5870   -2.1320   -0.6050 o         1 MOL     -0.652270
     11 C5        -11.1320   -2.3750    1.4960 c3        1 MOL     -0.217021
     12 C6        -10.7730   -3.8750    1.5280 c         1 MOL      0.820654
     13 O3         -9.9090   -4.3020    0.7260 o         1 MOL     -0.704360
     14 O4        -11.2690   -4.6040    2.3520 o         1 MOL     -0.704360
     15 H4        -11.9430   -3.4490   -0.6520 hn        1 MOL      0.275249
     16 H5        -11.5730   -0.8150    0.2760 h1        1 MOL      0.125227
     17 H6        -12.1630   -2.1250    1.7430 hc        1 MOL      0.080166
     18 H7        -10.6200   -1.8370    2.2970 hc        1 MOL      0.080166
     19 N2         -9.0620   -0.0360   -0.2640 n         1 MOL     -0.395986
     20 C7         -7.7010    0.5340   -0.6130 c3        1 MOL      0.118221
     21 C8         -6.8760    0.4820    0.6080 c         1 MOL      0.747284
     22 O5         -7.3750    0.8520    1.6690 o         1 MOL     -0.561996
     23 C9         -7.8810    1.8990   -1.2150 c3        1 MOL     -0.091219
     24 C10        -6.6800    2.4200   -2.0020 c3        1 MOL      0.233765
     25 C11        -6.7580    3.7840   -2.8220 c3        1 MOL     -0.010981
     26 C12        -5.3610    3.9380   -3.4790 c3        1 MOL      0.088233
     27 N3         -5.3900    4.9830   -4.5180 n4        1 MOL     -0.524908
     28 H8         -9.7980    0.6400   -0.0900 hn        1 MOL      0.220060
     29 H9         -7.2320   -0.0750   -1.3780 h1        1 MOL      0.030143
     30 H10        -8.2080    2.5620   -0.4190 hc        1 MOL      0.034598
     31 H11        -8.7060    1.8860   -1.9370 hc        1 MOL      0.034598
     32 H12        -6.3560    1.7340   -2.7910 hc        1 MOL     -0.119296
     33 H13        -5.7900    2.4280   -1.3690 hc        1 MOL     -0.119296
     34 H14        -6.9570    4.6260   -2.1610 hc        1 MOL      0.001939
     35 H15        -7.5460    3.7390   -3.5770 hc        1 MOL      0.001939
     36 H16        -5.1100    2.9950   -3.9490 hx        1 MOL      0.115183
     37 H17        -4.6940    4.0950   -2.6330 hx        1 MOL      0.115183
     38 H18        -5.9590    4.6320   -5.2770 hn        1 MOL      0.358655
     39 H19        -5.8660    5.7800   -4.1160 hn        1 MOL      0.358655
     40 H20        -4.4240    5.1980   -4.7010 hn        1 MOL      0.358655
     41 N4         -5.6260    0.0390    0.4220 n         1 MOL     -0.609519
     42 C13        -4.6850   -0.2420    1.5590 c3        1 MOL      0.042182
     43 C14        -3.2250   -0.3900    1.1770 c         1 MOL      0.470905
     44 O6         -2.8800   -0.8890    0.0980 o         1 MOL     -0.552469
     45 C15        -5.1230   -1.4340    2.3850 c3        1 MOL      0.131991
     46 C16        -5.9950   -2.4700    1.6760 c         1 MOL      0.744967
     47 O7         -5.4930   -3.1650    0.7520 o         1 MOL     -0.786761
     48 O8         -7.1360   -2.8340    2.0320 o         1 MOL     -0.786761
     49 H21        -5.3050   -0.2450   -0.4880 hn        1 MOL      0.290005
     50 H22        -4.8110    0.6460    2.1790 h1        1 MOL      0.070591
     51 H23        -5.6380   -1.1150    3.2930 hc        1 MOL     -0.026694
     52 H24        -4.2220   -1.9590    2.6940 hc        1 MOL     -0.026694
     53 N5         -2.2490    0.0690    1.9720 n         1 MOL     -0.272380
     54 C17        -2.3140    0.8870    3.1890 c3        1 MOL     -0.231616
     55 C18        -2.6510    2.3110    2.8340 c         1 MOL      0.630589
     56 O9         -2.9960    2.7140    1.6950 o         1 MOL     -0.553419
     57 H25        -1.3180   -0.0700    1.6150 hn        1 MOL      0.278038
     58 H26        -1.2760    1.0250    3.5140 h1        1 MOL      0.114219
     59 H27        -2.9460    0.4350    3.9570 h1        1 MOL      0.114219
     60 N6         -2.2510    3.2370    3.7330 n         1 MOL     -0.457575
     61 C19        -2.5130    4.6850    3.5270 c3        1 MOL      0.044345
     62 C20        -1.4270    5.1940    2.5240 c         1 MOL      0.516735
     63 O10        -0.2310    4.9140    2.7130 o         1 MOL     -0.540116
     64 C21        -2.4330    5.4890    4.8290 c3        1 MOL     -0.143038
     65 C22        -2.7650    6.8920    4.4770 c         1 MOL      0.687113
     66 O11        -1.8450    7.7380    4.6110 o         1 MOL     -0.692036
     67 O12        -3.9250    7.1390    4.1630 o         1 MOL     -0.692036
     68 H28        -2.0680    2.9130    4.6700 hn        1 MOL      0.272780
     69 H29        -3.4680    4.8050    3.0240 h1        1 MOL      0.031689
     70 H30        -1.4640    5.4690    5.3120 hc        1 MOL      0.043168
     71 H31        -3.2250    5.0710    5.4580 hc        1 MOL      0.043168
     72 N7         -1.8530    5.8680    1.4670 n         1 MOL     -0.281374
     73 C23        -0.9890    6.4770    0.4810 c3        1 MOL      0.012365
     74 C24        -0.7980    5.5610   -0.7210 c         1 MOL      0.567129
     75 O13        -0.4820    6.1030   -1.7730 o         1 MOL     -0.591111
     76 H32        -2.8480    5.9970    1.3730 hn        1 MOL      0.250448
     77 H33        -0.0200    6.6940    0.9250 h1        1 MOL      0.057561
     78 H34        -1.4240    7.4270    0.1440 h1        1 MOL      0.057561
     79 N8         -1.0210    4.2480   -0.5630 n         1 MOL     -0.258234
     80 C25        -0.7020    3.1160   -1.4700 c3        1 MOL      0.049273
     81 C26        -0.2350    1.7910   -0.6990 c         1 MOL      0.222264
     82 O14        -0.3110    1.7520    0.5180 o         1 MOL     -0.326530
     83 C27        -1.8750    2.7550   -2.4350 c3        1 MOL     -0.002239
     84 C28        -3.0520    2.0680   -1.7650 c3        1 MOL     -0.207155
     85 O15        -2.4230    3.9360   -3.0180 oh        1 MOL     -0.652467
     86 H35        -1.5030    4.0560    0.3140 hn        1 MOL      0.132555
     87 H36         0.1220    3.4710   -2.0800 h1        1 MOL      0.081015
     88 H37        -1.4950    2.1960   -3.2890 h1        1 MOL      0.075168
     89 H38        -1.6650    4.3150   -3.4770 ho        1 MOL      0.416896
     90 H39        -3.4620    2.6970   -0.9770 hc        1 MOL      0.108832
     91 H40        -3.8110    1.7290   -2.4690 hc        1 MOL      0.108832
     92 H41        -2.7080    1.0980   -1.3930 hc        1 MOL      0.108832
     93 N9          0.3880    0.8150   -1.4690 n         1 MOL     -0.240137
     94 C29         0.8520   -0.4720   -0.9380 c3        1 MOL     -0.070207
     95 C30         2.2360   -0.2210   -0.3080 c         1 MOL      0.629467
     96 O16         2.3420   -0.6690    0.8410 o         1 MOL     -0.551435
     97 C31         0.7980   -1.4360   -2.0360 c3        1 MOL      0.070134
     98 C32        -0.5430   -1.4930   -2.7580 c3        1 MOL      0.116059
     99 C33         1.1830   -2.8270   -1.4290 c3        1 MOL     -0.321643
    100 C34        -0.3610   -2.1600   -4.1240 c3        1 MOL     -0.144126
    101 H42         0.5880    0.9660   -2.4490 hn        1 MOL      0.216161
    102 H43         0.2290   -0.6920   -0.0750 h1        1 MOL      0.077612
    103 H44         1.6410   -1.2410   -2.7160 hc        1 MOL      0.019649
    104 H45        -0.9970   -0.5240   -2.9630 hc        1 MOL     -0.013271
    105 H46        -1.2970   -2.0210   -2.1770 hc        1 MOL     -0.013271
    106 H47         1.9330   -2.6820   -0.6570 hc        1 MOL      0.093704
    107 H48         0.3060   -3.2880   -0.9840 hc        1 MOL      0.093704
    108 H49         1.5070   -3.5660   -2.1620 hc        1 MOL      0.093704
    109 H50        -1.3300   -2.2160   -4.6220 hc        1 MOL      0.022992
    110 H51         0.3320   -1.5610   -4.7110 hc        1 MOL      0.022992
    111 H52         0.0360   -3.1660   -4.0600 hc        1 MOL      0.022992
    112 N10         3.1170    0.5400   -0.9100 n         1 MOL     -0.480394
    113 C35         4.2900    1.2690   -0.2470 c3        1 MOL     -0.213944
    114 C36         5.3060    1.6670   -1.3540 c         1 MOL      0.691793
    115 O17         4.8310    2.0760   -2.4320 o         1 MOL     -0.516603
    116 C37         3.8190    2.4440    0.6030 c3        1 MOL      0.463425
    117 C38         4.9300    2.8870    1.5400 c3        1 MOL     -0.456762
    118 O18         3.4330    3.5840   -0.2040 oh        1 MOL     -0.582779
    119 H53         2.9330    0.7600   -1.8800 hn        1 MOL      0.252992
    120 H54         4.7730    0.5260    0.3820 h1        1 MOL      0.115810
    121 H55         2.9440    2.1990    1.1990 h1        1 MOL      0.032747
    122 H56         2.9630    4.1020    0.4520 ho        1 MOL      0.371339
    123 H57         5.1200    2.0920    2.2610 hc        1 MOL      0.114380
    124 H58         5.8270    3.0710    0.9370 hc        1 MOL      0.114380
    125 H59         4.5440    3.7670    2.0510 hc        1 MOL      0.114380
    126 N11         6.6360    1.6040   -1.1220 n         1 MOL     -0.554737
    127 C39         7.6850    1.8270   -2.1830 c3        1 MOL     -0.060601
    128 C40         8.9620    1.0340   -1.8770 c         1 MOL      0.576500
    129 O19         9.6970    0.7690   -2.8630 o         1 MOL     -0.558601
    130 C41         7.9710    3.3470   -2.2620 c3        1 MOL      0.266451
    131 C42         9.3400    3.6720   -2.9230 c3        1 MOL     -0.455952
    132 O20         7.9300    3.9190   -0.9790 oh        1 MOL     -0.590808
    133 H60         6.8210    1.3440   -0.1720 hn        1 MOL      0.349351
    134 H61         7.3410    1.4780   -3.1500 h1        1 MOL      0.117736
    135 H62         7.1090    3.7670   -2.7820 h1        1 MOL      0.066205
    136 H63         8.1300    4.8460   -1.1030 ho        1 MOL      0.399520
    137 H64        10.1680    3.4190   -2.2580 hc        1 MOL      0.124651
    138 H65         9.5570    3.3300   -3.9340 hc        1 MOL      0.124651
    139 H66         9.3580    4.7470   -3.0650 hc        1 MOL      0.124651
    140 N12         9.1980    0.6030   -0.6650 n         1 MOL     -0.347429
    141 C43        10.2660   -0.4490   -0.3900 c3        1 MOL      0.046785
    142 C44         9.8010   -1.3770    0.7090 c         1 MOL      0.585442
    143 O21         9.0910   -0.9710    1.6140 o         1 MOL     -0.492456
    144 C45        11.5490    0.3230    0.0170 c3        1 MOL     -0.297474
    145 C46        12.7370   -0.3780   -0.6130 c3        1 MOL      0.297555
    146 C47        14.0990    0.0820   -0.1760 c3        1 MOL     -0.225306
    147 C48        15.1380   -0.7000   -1.0370 c3        1 MOL      0.205651
    148 N13        16.4820   -0.3090   -0.6830 n4        1 MOL     -0.189506
    149 H67         8.3870    0.6920   -0.0550 hn        1 MOL      0.199833
    150 H68        10.4640   -1.0920   -1.2540 h1        1 MOL      0.034276
    151 H69        11.7230    0.2940    1.0940 hc        1 MOL      0.104886
    152 H70        11.6300    1.3370   -0.3640 hc        1 MOL      0.104886
    153 H71        12.7020   -0.3040   -1.7040 hc        1 MOL     -0.034663
    154 H72        12.6680   -1.4140   -0.2700 hc        1 MOL     -0.034663
    155 H73        14.2580   -0.1130    0.8840 hc        1 MOL      0.054735
    156 H74        14.2600    1.1210   -0.4490 hc        1 MOL      0.054735
    157 H75        14.9940   -0.5240   -2.0960 hx        1 MOL      0.018801
    158 H76        14.9080   -1.7500   -0.8050 hx        1 MOL      0.018801
    159 H77        16.6260   -0.4520    0.3110 hn        1 MOL      0.240264
    160 H78        17.1790   -0.8550   -1.1670 hn        1 MOL      0.240264
    161 H79        16.5820    0.6860   -0.8280 hn        1 MOL      0.240264
    162 N14        10.2800   -2.6370    0.6760 n         1 MOL     -0.416956
    163 C49         9.9000   -3.6770    1.6530 c3        1 MOL      0.136523
    164 C50         8.3510   -3.8540    1.8490 c         1 MOL      0.435746
    165 O22         7.8240   -3.4580    2.8550 o         1 MOL     -0.529106
    166 C51        10.5670   -5.0610    1.3010 c3        1 MOL     -0.007108
    167 C52        12.0550   -5.0090    1.6940 c3        1 MOL     -0.266138
    168 C53        12.7860   -6.2890    1.2570 c         1 MOL      0.696559
    169 O23        12.7620   -7.2210    2.0830 o         1 MOL     -0.679999
    170 O24        13.2140   -6.4180    0.1180 o         1 MOL     -0.679999
    171 H80        11.0030   -2.8140   -0.0130 hn        1 MOL      0.232466
    172 H81        10.3050   -3.3690    2.6140 h1        1 MOL      0.039150
    173 H82        10.5590   -5.2760    0.2330 hc        1 MOL      0.072649
    174 H83        10.1200   -5.7800    1.9760 hc        1 MOL      0.072649
    175 H84        12.2100   -4.8650    2.7640 hc        1 MOL      0.032337
    176 H85        12.6000   -4.2050    1.1790 hc        1 MOL      0.032337
    177 N15         7.6390   -4.3490    0.8970 n         1 MOL     -0.442896
    178 C54         7.9320   -4.7590   -0.5210 c3        1 MOL      0.032294
    179 H86         7.0380   -5.1980   -0.9630 h1        1 MOL      0.034773
    180 H87         8.2300   -3.8840   -1.0980 h1        1 MOL      0.034773
    181 H88         8.7380   -5.4920   -0.5280 h1        1 MOL      0.034773
    182 H89         6.6580   -4.2920    1.1350 hn        1 MOL      0.313415
    183 Ca1        -7.4900   -4.7320    0.0350 Ca        1 MOL      1.766289
    184 O25        -7.0580   -5.7420    2.5230 oh        1 MOL     -0.867149
    185 H90        -6.4230   -5.4360    3.1740 ho        1 MOL      0.430104
    186 H91        -7.4190   -6.5450    2.8930 ho        1 MOL      0.430104
    187 O26        -6.5930   -3.3140   -2.0460 oh        1 MOL     -0.867149
    188 H92        -5.9790   -2.5870   -1.9210 ho        1 MOL      0.430104
    189 H93        -7.3120   -2.9380   -2.5590 ho        1 MOL      0.430104
    190 O27        -8.3990   -7.2720    0.3630 oh        1 MOL     -0.867149
    191 H94        -8.6930   -7.8690    1.0480 ho        1 MOL      0.430104
    192 H95        -7.7380   -7.7590   -0.1230 ho        1 MOL      0.430104
    193 O28        -8.5720   -5.5860   -2.4350 oh        1 MOL     -0.867149
    194 H96        -9.3140   -6.1880   -2.4260 ho        1 MOL      0.430104
    195 H97        -8.5050   -5.2810   -3.3300 ho        1 MOL      0.430104
@<TRIPOS>BOND
     1    1    2 1   
     2    1    4 1   
     3    1    5 1   
     4    1    6 1   
     5    2    3 2   
     6    2    7 1   
     7    7    8 1   
     8    7   15 1   
     9    8    9 1   
    10    8   11 1   
    11    8   16 1   
    12    9   10 2   
    13    9   19 1   
    14   11   12 1   
    15   11   17 1   
    16   11   18 1   
    17   12   13 1   
    18   12   14 1   
    19   19   20 1   
    20   19   28 1   
    21   20   21 1   
    22   20   23 1   
    23   20   29 1   
    24   21   22 2   
    25   21   41 1   
    26   23   24 1   
    27   23   30 1   
    28   23   31 1   
    29   24   25 1   
    30   24   32 1   
    31   24   33 1   
    32   25   26 1   
    33   25   34 1   
    34   25   35 1   
    35   26   27 1   
    36   26   36 1   
    37   26   37 1   
    38   27   38 1   
    39   27   39 1   
    40   27   40 1   
    41   41   42 1   
    42   41   49 1   
    43   42   43 1   
    44   42   45 1   
    45   42   50 1   
    46   43   44 2   
    47   43   53 1   
    48   45   46 1   
    49   45   51 1   
    50   45   52 1   
    51   46   47 1   
    52   46   48 1   
    53   53   54 1   
    54   53   57 1   
    55   54   55 1   
    56   54   58 1   
    57   54   59 1   
    58   55   56 2   
    59   55   60 1   
    60   60   61 1   
    61   60   68 1   
    62   61   62 1   
    63   61   64 1   
    64   61   69 1   
    65   62   63 2   
    66   62   72 1   
    67   64   65 1   
    68   64   70 1   
    69   64   71 1   
    70   65   66 1   
    71   65   67 1   
    72   72   73 1   
    73   72   76 1   
    74   73   74 1   
    75   73   77 1   
    76   73   78 1   
    77   74   75 2   
    78   74   79 1   
    79   79   80 1   
    80   79   86 1   
    81   80   81 1   
    82   80   83 1   
    83   80   87 1   
    84   81   82 2   
    85   81   93 1   
    86   83   84 1   
    87   83   85 1   
    88   83   88 1   
    89   84   90 1   
    90   84   91 1   
    91   84   92 1   
    92   85   89 1   
    93   93   94 1   
    94   93  101 1   
    95   94   95 1   
    96   94   97 1   
    97   94  102 1   
    98   95   96 2   
    99   95  112 1   
   100   97   98 1   
   101   97   99 1   
   102   97  103 1   
   103   98  100 1   
   104   98  104 1   
   105   98  105 1   
   106   99  106 1   
   107   99  107 1   
   108   99  108 1   
   109  100  109 1   
   110  100  110 1   
   111  100  111 1   
   112  112  113 1   
   113  112  119 1   
   114  113  114 1   
   115  113  116 1   
   116  113  120 1   
   117  114  115 2   
   118  114  126 1   
   119  116  117 1   
   120  116  118 1   
   121  116  121 1   
   122  117  123 1   
   123  117  124 1   
   124  117  125 1   
   125  118  122 1   
   126  126  127 1   
   127  126  133 1   
   128  127  128 1   
   129  127  130 1   
   130  127  134 1   
   131  128  129 2   
   132  128  140 1   
   133  130  131 1   
   134  130  132 1   
   135  130  135 1   
   136  131  137 1   
   137  131  138 1   
   138  131  139 1   
   139  132  136 1   
   140  140  141 1   
   141  140  149 1   
   142  141  142 1   
   143  141  144 1   
   144  141  150 1   
   145  142  143 2   
   146  142  162 1   
   147  144  145 1   
   148  144  151 1   
   149  144  152 1   
   150  145  146 1   
   151  145  153 1   
   152  145  154 1   
   153  146  147 1   
   154  146  155 1   
   155  146  156 1   
   156  147  148 1   
   157  147  157 1   
   158  147  158 1   
   159  148  159 1   
   160  148  160 1   
   161  148  161 1   
   162  162  163 1   
   163  162  171 1   
   164  163  164 1   
   165  163  166 1   
   166  163  172 1   
   167  164  165 2   
   168  164  177 1   
   169  166  167 1   
   170  166  173 1   
   171  166  174 1   
   172  167  168 1   
   173  167  175 1   
   174  167  176 1   
   175  168  169 1   
   176  168  170 1   
   177  177  178 1   
   178  177  182 1   
   179  178  179 1   
   180  178  180 1   
   181  178  181 1   
   182  184  185 1   
   183  184  186 1   
   184  187  188 1   
   185  187  189 1   
   186  190  191 1   
   187  190  192 1   
   188  193  194 1   
   189  193  195 1   
@<TRIPOS>SUBSTRUCTURE
     1 MOL         1 TEMP              0 ****  ****    0 ROOT
