@<TRIPOS>MOLECULE
MOL
  192   187     1     0     0
SMALL
resp


@<TRIPOS>ATOM
      1 C1         -4.9740   -1.8610   -3.9380 c3        1 MOL     -0.549342
      2 C2         -5.5050   -1.1050   -2.7240 c         1 MOL      0.604225
      3 O1         -4.6930   -0.4830   -2.1130 o         1 MOL     -0.508945
      4 H1         -5.7610   -2.4980   -4.3410 hc        1 MOL      0.145879
      5 H2         -4.6580   -1.1480   -4.7010 hc        1 MOL      0.145879
      6 H3         -4.1250   -2.4750   -3.6410 hc        1 MOL      0.145879
      7 N1         -6.7460   -1.2780   -2.3240 n         1 MOL     -0.456678
      8 C3         -7.2320   -0.5010   -1.1560 c3        1 MOL      0.138836
      9 C4         -6.9410   -1.1330    0.2330 c         1 MOL      0.191285
     10 O2         -7.2330   -0.5190    1.2140 o         1 MOL     -0.498026
     11 C5         -8.7830   -0.2590   -1.2040 c3        1 MOL     -0.238611
     12 C6         -9.7140   -1.4660   -1.2380 c         1 MOL      0.704914
     13 O3         -9.2630   -2.5190   -1.7230 o         1 MOL     -0.694746
     14 O4        -10.9320   -1.3770   -0.9000 o         1 MOL     -0.694746
     15 H4         -7.3930   -1.9150   -2.7530 hn        1 MOL      0.282094
     16 H5         -6.7490    0.4750   -1.2190 h1        1 MOL      0.085447
     17 H6         -8.8480    0.4080   -2.0610 hc        1 MOL      0.084410
     18 H7         -9.0720    0.3400   -0.3340 hc        1 MOL      0.084410
     19 N2         -6.3500   -2.2660    0.4060 n         1 MOL     -0.132250
     20 C7         -6.1160   -2.9700    1.7050 c3        1 MOL      0.023578
     21 C8         -4.7240   -3.6860    1.8020 c         1 MOL      0.492703
     22 O5         -4.5750   -4.7110    2.4720 o         1 MOL     -0.535674
     23 C9         -7.2690   -3.9530    1.8600 c3        1 MOL      0.020855
     24 C10        -8.6960   -3.4020    1.9600 c3        1 MOL      0.039503
     25 C11        -9.8190   -4.4940    1.9590 c3        1 MOL     -0.202897
     26 C12       -10.0180   -5.1780    0.6060 c3        1 MOL     -0.020651
     27 N3        -10.7770   -4.3470   -0.3220 n4        1 MOL     -0.128637
     28 H8         -6.2490   -2.7480   -0.4710 hn        1 MOL      0.199466
     29 H9         -6.2040   -2.2860    2.5450 h1        1 MOL      0.133236
     30 H10        -7.0850   -4.6360    2.6840 hc        1 MOL     -0.000274
     31 H11        -7.2780   -4.4920    0.9110 hc        1 MOL     -0.000274
     32 H12        -8.8720   -2.6770    1.1590 hc        1 MOL      0.023079
     33 H13        -8.7920   -2.8800    2.9100 hc        1 MOL      0.023079
     34 H14       -10.8140   -4.1070    2.1920 hc        1 MOL      0.093523
     35 H15        -9.4860   -5.2010    2.7230 hc        1 MOL      0.093523
     36 H16       -10.5420   -6.1050    0.8610 hx        1 MOL      0.059505
     37 H17        -9.0370   -5.3060    0.1580 hx        1 MOL      0.059505
     38 H18       -10.3670   -3.4480   -0.5370 hn        1 MOL      0.254201
     39 H19       -10.8050   -4.8130   -1.2170 hn        1 MOL      0.254201
     40 H20       -11.7610   -4.2140   -0.1150 hn        1 MOL      0.254201
     41 N4         -3.6550   -3.1610    1.1710 n         1 MOL     -0.506870
     42 C13        -3.4410   -1.9640    0.3780 c3        1 MOL      0.073805
     43 C14        -3.6240   -0.6280    1.1110 c         1 MOL      0.515677
     44 O6         -3.6330   -0.5910    2.3390 o         1 MOL     -0.530903
     45 C15        -1.9550   -1.9860   -0.1880 c3        1 MOL     -0.071627
     46 C16        -0.7610   -2.1320    0.8350 c         1 MOL      0.615847
     47 O7          0.0570   -1.1720    0.8860 o         1 MOL     -0.617077
     48 O8         -0.7300   -3.1770    1.5050 o         1 MOL     -0.617077
     49 H21        -2.7640   -3.5840    1.4000 hn        1 MOL      0.320088
     50 H22        -4.1070   -2.1180   -0.4750 h1        1 MOL      0.045122
     51 H23        -1.8040   -1.1630   -0.8980 hc        1 MOL     -0.027103
     52 H24        -1.9360   -2.9060   -0.7670 hc        1 MOL     -0.027103
     53 N5         -3.5400    0.4270    0.3300 n         1 MOL     -0.041165
     54 C17        -3.7980    1.8370    0.7410 c3        1 MOL     -0.405885
     55 C18        -2.5570    2.4320    1.4530 c         1 MOL      0.755482
     56 O9         -1.4590    1.9350    1.3210 o         1 MOL     -0.739889
     57 H25        -3.4810    0.2680   -0.6710 hn        1 MOL      0.120858
     58 H26        -4.7030    1.8570    1.3490 h1        1 MOL      0.148344
     59 H27        -3.9320    2.3880   -0.1890 h1        1 MOL      0.148344
     60 N6         -2.7200    3.6460    1.9890 n         1 MOL     -0.529980
     61 C19        -1.7300    4.5730    2.4120 c3        1 MOL      0.354618
     62 C20        -2.2760    6.0000    2.4010 c         1 MOL      0.427010
     63 O10        -3.4850    6.2540    2.6090 o         1 MOL     -0.534149
     64 C21        -1.1280    4.2550    3.8220 c3        1 MOL     -0.330348
     65 C22        -0.5080    2.8570    3.9510 c         1 MOL      0.709418
     66 O11         0.5620    2.6280    3.3120 o         1 MOL     -0.647115
     67 O12        -1.0830    1.9920    4.6780 o         1 MOL     -0.647115
     68 H28        -3.6750    3.9680    2.0600 hn        1 MOL      0.275712
     69 H29        -0.9550    4.4860    1.6490 h1        1 MOL     -0.046793
     70 H30        -1.9800    4.4340    4.4740 hc        1 MOL      0.078690
     71 H31        -0.4060    5.0400    4.0350 hc        1 MOL      0.078690
     72 N7         -1.4630    7.0100    2.1830 n         1 MOL     -0.423386
     73 C23        -0.0210    6.9570    1.8530 c3        1 MOL      0.031785
     74 C24         0.3490    6.6610    0.4150 c         1 MOL      0.588427
     75 O13        -0.5080    6.7470   -0.4660 o         1 MOL     -0.504946
     76 H32        -1.9590    7.8860    2.1910 hn        1 MOL      0.319174
     77 H33         0.5070    6.1810    2.4060 h1        1 MOL      0.041164
     78 H34         0.4020    7.9160    2.1160 h1        1 MOL      0.041164
     79 N8          1.5980    6.2200    0.1880 n         1 MOL     -0.558962
     80 C25         1.9350    5.4330   -1.0620 c3        1 MOL      0.280614
     81 C26         1.3790    4.0670   -1.1490 c         1 MOL      0.654370
     82 O14         1.2480    3.3850   -0.1270 o         1 MOL     -0.617164
     83 C27         3.4910    5.3810   -1.2120 c3        1 MOL      0.093382
     84 C28         4.3800    4.7110   -0.1340 c3        1 MOL     -0.209583
     85 O15         3.9390    6.7730   -1.1420 oh        1 MOL     -0.634566
     86 H35         2.2420    6.0770    0.9500 hn        1 MOL      0.326503
     87 H36         1.4970    6.0120   -1.8820 h1        1 MOL      0.049272
     88 H37         3.7510    4.9480   -2.1750 h1        1 MOL      0.039544
     89 H38         4.8970    6.7370   -1.2350 ho        1 MOL      0.415892
     90 H39         4.1830    3.6420   -0.0650 hc        1 MOL      0.065653
     91 H40         5.4270    4.9520   -0.3230 hc        1 MOL      0.065653
     92 H41         4.1480    5.1310    0.8500 hc        1 MOL      0.065653
     93 N9          0.9340    3.7000   -2.3700 n         1 MOL     -0.758873
     94 C29        -0.0420    2.6650   -2.7580 c3        1 MOL      0.413974
     95 C30         0.2240    1.2250   -2.2570 c         1 MOL      0.025090
     96 O16         0.1200    0.8790   -1.0810 o         1 MOL     -0.454983
     97 C31        -1.4760    3.1110   -2.1930 c3        1 MOL     -0.000660
     98 C32        -1.7880    4.5890   -2.6960 c3        1 MOL      0.044515
     99 C33        -2.5630    2.1280   -2.6860 c3        1 MOL     -0.724685
    100 C34        -3.1600    5.1950   -2.4670 c3        1 MOL     -0.198384
    101 H42         1.0950    4.2660   -3.1870 hn        1 MOL      0.314233
    102 H43        -0.2090    2.6230   -3.8380 h1        1 MOL      0.018531
    103 H44        -1.5620    3.1920   -1.1090 hc        1 MOL      0.167919
    104 H45        -1.4990    4.6750   -3.7440 hc        1 MOL      0.001647
    105 H46        -1.0380    5.2570   -2.2570 hc        1 MOL      0.001647
    106 H47        -3.5550    2.5740   -2.7310 hc        1 MOL      0.197837
    107 H48        -2.4010    1.5760   -3.6130 hc        1 MOL      0.197837
    108 H49        -2.6770    1.4300   -1.8540 hc        1 MOL      0.197837
    109 H50        -3.9190    4.5470   -2.9050 hc        1 MOL      0.055500
    110 H51        -3.3170    5.1910   -1.3840 hc        1 MOL      0.055500
    111 H52        -3.1990    6.2390   -2.7560 hc        1 MOL      0.055500
    112 N10         0.6330    0.3770   -3.1740 n         1 MOL     -0.086092
    113 C35         0.6540   -1.0840   -2.9630 c3        1 MOL     -0.109234
    114 C36         1.9870   -1.7700   -3.2500 c         1 MOL      0.586503
    115 O17         2.0680   -2.9830   -2.9180 o         1 MOL     -0.560206
    116 C37        -0.4440   -1.8650   -3.6560 c3        1 MOL      0.217038
    117 C38        -0.3060   -1.8160   -5.1800 c3        1 MOL     -0.336319
    118 O18        -1.6210   -1.1660   -3.4670 oh        1 MOL     -0.483165
    119 H53         0.7600    0.7260   -4.1070 hn        1 MOL      0.206580
    120 H54         0.4350   -1.2430   -1.9040 h1        1 MOL      0.105323
    121 H55        -0.5950   -2.8880   -3.3190 h1        1 MOL      0.076526
    122 H56        -1.7500   -1.2030   -2.5150 ho        1 MOL      0.382739
    123 H57         0.3920   -2.5980   -5.5090 hc        1 MOL      0.086023
    124 H58        -1.2390   -1.8770   -5.7340 hc        1 MOL      0.086023
    125 H59         0.1420   -0.8910   -5.5400 hc        1 MOL      0.086023
    126 N11         3.0230   -1.0450   -3.6910 n         1 MOL     -0.301960
    127 C39         4.3770   -1.6520   -3.6990 c3        1 MOL     -0.211419
    128 C40         5.0550   -1.5640   -2.2880 c         1 MOL      0.463555
    129 O19         4.9190   -0.6560   -1.4670 o         1 MOL     -0.405156
    130 C41         5.3020   -0.8880   -4.6680 c3        1 MOL      0.310550
    131 C42         4.7970   -1.0350   -6.1210 c3        1 MOL     -0.230303
    132 O20         5.1770    0.5100   -4.3080 oh        1 MOL     -0.642029
    133 H60         2.9140   -0.0510   -3.8470 hn        1 MOL      0.243529
    134 H61         4.2930   -2.6890   -4.0120 h1        1 MOL      0.139410
    135 H62         6.3380   -1.2020   -4.6120 h1        1 MOL      0.005582
    136 H63         5.9490    0.9810   -4.6240 ho        1 MOL      0.422414
    137 H64         5.4200   -0.4720   -6.8240 hc        1 MOL      0.063911
    138 H65         4.8390   -2.0900   -6.3860 hc        1 MOL      0.063911
    139 H66         3.7380   -0.7970   -6.2550 hc        1 MOL      0.063911
    140 N12         5.7860   -2.6820   -2.0030 n         1 MOL     -0.371213
    141 C43         6.8060   -2.7550   -0.9480 c3        1 MOL      0.002085
    142 C44         6.5270   -1.9580    0.3580 c         1 MOL      0.465221
    143 O21         6.9740   -0.8300    0.5720 o         1 MOL     -0.511906
    144 C45         8.1540   -2.4430   -1.6030 c3        1 MOL     -0.145260
    145 C46         9.3080   -3.2780   -1.0680 c3        1 MOL     -0.029084
    146 C47        10.6550   -2.8060   -1.5420 c3        1 MOL     -0.050064
    147 C48        11.8800   -3.6940   -0.9350 c3        1 MOL      0.005999
    148 N13        11.8920   -3.7830    0.5470 n4        1 MOL     -0.246254
    149 H67         5.8100   -3.4100   -2.7000 hn        1 MOL      0.273133
    150 H68         6.8580   -3.8330   -0.7810 h1        1 MOL      0.060685
    151 H69         8.3790   -1.3820   -1.4790 hc        1 MOL      0.083040
    152 H70         8.0740   -2.6620   -2.6670 hc        1 MOL      0.083040
    153 H71         9.0920   -4.3290   -1.2300 hc        1 MOL      0.026802
    154 H72         9.3930   -3.1300    0.0130 hc        1 MOL      0.026802
    155 H73        10.7490   -1.7580   -1.2780 hc        1 MOL      0.056262
    156 H74        10.7760   -2.7970   -2.6280 hc        1 MOL      0.056262
    157 H75        12.8310   -3.3370   -1.3150 hx        1 MOL      0.079769
    158 H76        11.8200   -4.7180   -1.3050 hx        1 MOL      0.079769
    159 H77        11.2040   -4.4180    0.8990 hn        1 MOL      0.262518
    160 H78        12.7920   -4.0970    0.8850 hn        1 MOL      0.262518
    161 H79        11.6730   -2.9200    1.0270 hn        1 MOL      0.262518
    162 N14         5.6380   -2.4470    1.1860 n         1 MOL     -0.475017
    163 C49         4.9260   -1.8500    2.3660 c3        1 MOL      0.308609
    164 C50         3.4110   -1.7100    2.1630 c         1 MOL      0.417371
    165 O22         2.8190   -0.6170    2.3190 o         1 MOL     -0.596562
    166 C51         5.3450   -2.5320    3.7210 c3        1 MOL     -0.189415
    167 C52         6.5970   -1.9110    4.3540 c3        1 MOL     -0.381177
    168 C53         6.9610   -2.7260    5.5860 c         1 MOL      0.784527
    169 O23         7.9980   -3.4190    5.5480 o         1 MOL     -0.687809
    170 O24         6.1820   -2.6700    6.5270 o         1 MOL     -0.687809
    171 H80         5.2840   -3.3400    0.8720 hn        1 MOL      0.241500
    172 H81         5.2690   -0.8190    2.4770 h1        1 MOL      0.042685
    173 H82         5.4370   -3.6160    3.6690 hc        1 MOL      0.112344
    174 H83         4.5220   -2.4110    4.4310 hc        1 MOL      0.112344
    175 H84         6.4570   -0.9070    4.7490 hc        1 MOL      0.090806
    176 H85         7.4110   -1.9180    3.6200 hc        1 MOL      0.090806
    177 N15         2.6240   -2.6900    1.7530 n         1 MOL     -0.251960
    178 C54         3.0300   -4.1130    1.8230 c3        1 MOL     -0.045573
    179 H86         2.3710   -4.7100    1.1930 h1        1 MOL      0.044789
    180 H87         4.0570   -4.2160    1.4750 h1        1 MOL      0.044789
    181 H88         2.9590   -4.4600    2.8540 h1        1 MOL      0.044789
    182 H89         1.6950   -2.6310    1.3560 hn        1 MOL      0.265255
    183 Ca1         1.0960    1.1190    1.3270 Ca        1 MOL      1.790955
    184 O25        -0.0170   -0.1220    3.6190 oh        1 MOL     -0.904764
    185 H90        -0.5260    0.6210    3.9490 ho        1 MOL      0.433156
    186 H91        -0.6640   -0.8290    3.5470 ho        1 MOL      0.433156
    187 O26         3.0170    0.9270   -0.6530 oh        1 MOL     -0.904764
    188 H92         3.0270    1.4830   -1.4320 ho        1 MOL      0.433156
    189 H93         3.8430    0.4340   -0.6940 ho        1 MOL      0.433156
    190 O27         3.3650    2.2400    2.1980 oh        1 MOL     -0.904764
    191 H94         3.7180    2.9030    2.7980 ho        1 MOL      0.433156
    192 H95         4.1460    1.8700    1.7800 ho        1 MOL      0.433156
@<TRIPOS>BOND
     1    1    2 1   
     2    1    4 1   
     3    1    5 1   
     4    1    6 1   
     5    2    3 2   
     6    2    7 1   
     7    7    8 1   
     8    7   15 1   
     9    8    9 1   
    10    8   11 1   
    11    8   16 1   
    12    9   10 2   
    13    9   19 1   
    14   11   12 1   
    15   11   17 1   
    16   11   18 1   
    17   12   13 1   
    18   12   14 1   
    19   19   20 1   
    20   19   28 1   
    21   20   21 1   
    22   20   23 1   
    23   20   29 1   
    24   21   22 2   
    25   21   41 1   
    26   23   24 1   
    27   23   30 1   
    28   23   31 1   
    29   24   25 1   
    30   24   32 1   
    31   24   33 1   
    32   25   26 1   
    33   25   34 1   
    34   25   35 1   
    35   26   27 1   
    36   26   36 1   
    37   26   37 1   
    38   27   38 1   
    39   27   39 1   
    40   27   40 1   
    41   41   42 1   
    42   41   49 1   
    43   42   43 1   
    44   42   45 1   
    45   42   50 1   
    46   43   44 2   
    47   43   53 1   
    48   45   46 1   
    49   45   51 1   
    50   45   52 1   
    51   46   47 1   
    52   46   48 1   
    53   53   54 1   
    54   53   57 1   
    55   54   55 1   
    56   54   58 1   
    57   54   59 1   
    58   55   56 2   
    59   55   60 1   
    60   60   61 1   
    61   60   68 1   
    62   61   62 1   
    63   61   64 1   
    64   61   69 1   
    65   62   63 2   
    66   62   72 1   
    67   64   65 1   
    68   64   70 1   
    69   64   71 1   
    70   65   66 1   
    71   65   67 1   
    72   72   73 1   
    73   72   76 1   
    74   73   74 1   
    75   73   77 1   
    76   73   78 1   
    77   74   75 2   
    78   74   79 1   
    79   79   80 1   
    80   79   86 1   
    81   80   81 1   
    82   80   83 1   
    83   80   87 1   
    84   81   82 2   
    85   81   93 1   
    86   83   84 1   
    87   83   85 1   
    88   83   88 1   
    89   84   90 1   
    90   84   91 1   
    91   84   92 1   
    92   85   89 1   
    93   93   94 1   
    94   93  101 1   
    95   94   95 1   
    96   94   97 1   
    97   94  102 1   
    98   95   96 2   
    99   95  112 1   
   100   97   98 1   
   101   97   99 1   
   102   97  103 1   
   103   98  100 1   
   104   98  104 1   
   105   98  105 1   
   106   99  106 1   
   107   99  107 1   
   108   99  108 1   
   109  100  109 1   
   110  100  110 1   
   111  100  111 1   
   112  112  113 1   
   113  112  119 1   
   114  113  114 1   
   115  113  116 1   
   116  113  120 1   
   117  114  115 2   
   118  114  126 1   
   119  116  117 1   
   120  116  118 1   
   121  116  121 1   
   122  117  123 1   
   123  117  124 1   
   124  117  125 1   
   125  118  122 1   
   126  126  127 1   
   127  126  133 1   
   128  127  128 1   
   129  127  130 1   
   130  127  134 1   
   131  128  129 2   
   132  128  140 1   
   133  130  131 1   
   134  130  132 1   
   135  130  135 1   
   136  131  137 1   
   137  131  138 1   
   138  131  139 1   
   139  132  136 1   
   140  140  141 1   
   141  140  149 1   
   142  141  142 1   
   143  141  144 1   
   144  141  150 1   
   145  142  143 2   
   146  142  162 1   
   147  144  145 1   
   148  144  151 1   
   149  144  152 1   
   150  145  146 1   
   151  145  153 1   
   152  145  154 1   
   153  146  147 1   
   154  146  155 1   
   155  146  156 1   
   156  147  148 1   
   157  147  157 1   
   158  147  158 1   
   159  148  159 1   
   160  148  160 1   
   161  148  161 1   
   162  162  163 1   
   163  162  171 1   
   164  163  164 1   
   165  163  166 1   
   166  163  172 1   
   167  164  165 2   
   168  164  177 1   
   169  166  167 1   
   170  166  173 1   
   171  166  174 1   
   172  167  168 1   
   173  167  175 1   
   174  167  176 1   
   175  168  169 1   
   176  168  170 1   
   177  177  178 1   
   178  177  182 1   
   179  178  179 1   
   180  178  180 1   
   181  178  181 1   
   182  184  185 1   
   183  184  186 1   
   184  187  188 1   
   185  187  189 1   
   186  190  191 1   
   187  190  192 1   
@<TRIPOS>SUBSTRUCTURE
     1 MOL         1 TEMP              0 ****  ****    0 ROOT
