@<TRIPOS>MOLECULE
MOL
  189   185     1     0     0
SMALL
resp


@<TRIPOS>ATOM
      1 C1         12.2720    6.3700   -1.5080 c3        1 MOL     -0.501802
      2 C2         12.2580    4.9780   -0.7850 c         1 MOL      0.660866
      3 O1         13.1830    4.2080   -0.6460 o         1 MOL     -0.579955
      4 H1         12.2030    7.1640   -0.7660 hc        1 MOL      0.136228
      5 H2         13.1990    6.4770   -2.0710 hc        1 MOL      0.136228
      6 H3         11.4230    6.4340   -2.1900 hc        1 MOL      0.136228
      7 N1         11.0580    4.7700   -0.2340 n         1 MOL     -0.143923
      8 C3         10.7060    3.5770    0.5580 c3        1 MOL     -0.545753
      9 C4          9.5420    2.7320   -0.0350 c         1 MOL      0.684789
     10 O2          8.6580    3.3780   -0.6120 o         1 MOL     -0.625599
     11 C5         10.4100    4.0150    1.9700 c3        1 MOL      0.119314
     12 C6          9.5630    5.3010    2.1710 c         1 MOL      0.637986
     13 O3          8.7390    5.6370    1.2660 o         1 MOL     -0.685958
     14 O4          9.4980    5.9250    3.2600 o         1 MOL     -0.685958
     15 H4         10.3700    5.4190   -0.5920 hn        1 MOL      0.100433
     16 H5         11.6260    2.9830    0.5990 h1        1 MOL      0.201578
     17 H6         11.3590    4.1410    2.4860 hc        1 MOL      0.025606
     18 H7          9.9520    3.1900    2.5220 hc        1 MOL      0.025606
     19 N2          9.5240    1.4090    0.0570 n         1 MOL     -0.412647
     20 C7          8.6790    0.4110   -0.6800 c3        1 MOL      0.051211
     21 C8          7.3970    0.1640    0.0490 c         1 MOL      0.449776
     22 O5          7.2460    0.3780    1.2750 o         1 MOL     -0.551315
     23 C9          9.4790   -0.8980   -0.9130 c3        1 MOL      0.063481
     24 C10        10.5340   -0.7120   -2.0290 c3        1 MOL      0.050754
     25 C11        11.3470   -1.9760   -2.4170 c3        1 MOL     -0.097341
     26 C12        10.6190   -3.2720   -2.8960 c3        1 MOL     -0.121278
     27 N3          9.5930   -2.9310   -3.8880 n4        1 MOL     -0.160335
     28 H8         10.4380    1.1800    0.4250 hn        1 MOL      0.268545
     29 H9          8.3430    0.7980   -1.6460 h1        1 MOL      0.076691
     30 H10         8.8100   -1.7060   -1.2200 hc        1 MOL      0.010208
     31 H11         9.9790   -1.2730   -0.0240 hc        1 MOL      0.010208
     32 H12        11.1680    0.0770   -1.6060 hc        1 MOL     -0.008034
     33 H13        10.1360   -0.3160   -2.9620 hc        1 MOL     -0.008034
     34 H14        12.0290   -2.2940   -1.6330 hc        1 MOL      0.073708
     35 H15        11.9330   -1.6570   -3.2740 hc        1 MOL      0.073708
     36 H16        10.2480   -3.7260   -1.9720 hx        1 MOL      0.124702
     37 H17        11.2660   -3.9950   -3.3880 hx        1 MOL      0.124702
     38 H18         9.9930   -2.6700   -4.7750 hn        1 MOL      0.231348
     39 H19         8.9990   -3.7250   -4.0720 hn        1 MOL      0.231348
     40 H20         8.8850   -2.2860   -3.5650 hn        1 MOL      0.231348
     41 N4          6.4210   -0.2400   -0.7540 n         1 MOL     -0.317234
     42 C13         5.0960   -0.4930   -0.1880 c3        1 MOL      0.043296
     43 C14         4.5120   -1.7480   -0.8380 c         1 MOL      0.376615
     44 O6          4.6590   -1.8620   -2.0730 o         1 MOL     -0.565192
     45 C15         4.2090    0.7640   -0.2990 c3        1 MOL     -0.217702
     46 C16         5.0060    2.1180   -0.2140 c         1 MOL      0.907948
     47 O7          5.6300    2.5070   -1.2670 o         1 MOL     -0.829903
     48 O8          4.8510    3.0120    0.6980 o         1 MOL     -0.829903
     49 H21         6.5440   -0.3870   -1.7450 hn        1 MOL      0.255849
     50 H22         5.2850   -0.5570    0.8850 h1        1 MOL      0.063557
     51 H23         3.5640    0.7940    0.5830 hc        1 MOL      0.089631
     52 H24         3.5380    0.7970   -1.1640 hc        1 MOL      0.089631
     53 N5          3.9500   -2.6580   -0.0440 n         1 MOL     -0.166680
     54 C17         3.9160   -2.5300    1.4740 c3        1 MOL     -0.236322
     55 C18         2.8850   -3.5240    1.9760 c         1 MOL      0.632863
     56 O9          2.5780   -4.4850    1.3170 o         1 MOL     -0.519951
     57 H25         3.6100   -3.4940   -0.4960 hn        1 MOL      0.195141
     58 H26         3.5880   -1.5400    1.7940 h1        1 MOL      0.125239
     59 H27         4.8800   -2.7260    1.9460 h1        1 MOL      0.125239
     60 N6          2.3650   -3.3130    3.1830 n         1 MOL     -0.471734
     61 C19         1.5720   -4.2920    3.9090 c3        1 MOL      0.080312
     62 C20         0.2590   -4.6390    3.2100 c         1 MOL      0.530225
     63 O10        -0.6310   -3.8150    3.0300 o         1 MOL     -0.504135
     64 C21         1.2750   -3.8800    5.3660 c3        1 MOL     -0.252703
     65 C22         2.5360   -3.4950    6.0990 c         1 MOL      0.772402
     66 O11         3.5950   -3.9800    5.8070 o         1 MOL     -0.661998
     67 O12         2.4360   -2.7680    7.1100 o         1 MOL     -0.661998
     68 H28         2.6230   -2.5270    3.7730 hn        1 MOL      0.294123
     69 H29         2.1620   -5.2050    3.9400 h1        1 MOL      0.018506
     70 H30         0.7750   -4.7110    5.8590 hc        1 MOL      0.071733
     71 H31         0.5830   -3.0490    5.2800 hc        1 MOL      0.071733
     72 N7          0.2490   -5.9180    2.8380 n         1 MOL     -0.426884
     73 C23        -1.0340   -6.4690    2.2840 c3        1 MOL     -0.071218
     74 C24        -1.1620   -6.1620    0.8050 c         1 MOL      0.446520
     75 O13        -2.2040   -6.4430    0.1610 o         1 MOL     -0.537528
     76 H32         0.9590   -6.5900    3.0870 hn        1 MOL      0.315326
     77 H33        -1.9600   -6.1330    2.7520 h1        1 MOL      0.100927
     78 H34        -1.0250   -7.5590    2.3770 h1        1 MOL      0.100927
     79 N8         -0.0990   -5.6490    0.0740 n         1 MOL     -0.270344
     80 C25        -0.1940   -5.0630   -1.3040 c3        1 MOL     -0.016774
     81 C26        -0.1310   -3.5370   -1.2310 c         1 MOL      0.507712
     82 O14         0.3500   -2.8740   -0.2950 o         1 MOL     -0.489293
     83 C27         0.8260   -5.6660   -2.2840 c3        1 MOL      0.273052
     84 C28         2.2890   -5.2630   -2.0260 c3        1 MOL     -0.114513
     85 O15         0.6200   -7.0650   -2.1620 oh        1 MOL     -0.614507
     86 H35         0.7660   -5.5400    0.5950 hn        1 MOL      0.206849
     87 H36        -1.1860   -5.3470   -1.6650 h1        1 MOL      0.057718
     88 H37         0.5670   -5.4820   -3.3250 h1        1 MOL      0.001039
     89 H38        -0.3340   -7.1650   -2.2860 ho        1 MOL      0.385172
     90 H39         2.5460   -4.3590   -2.5730 hc        1 MOL      0.044411
     91 H40         2.4750   -5.1210   -0.9680 hc        1 MOL      0.044411
     92 H41         2.9100   -6.0830   -2.3970 hc        1 MOL      0.044411
     93 N9         -0.8270   -2.8880   -2.2530 n         1 MOL     -0.377691
     94 C29        -0.9180   -1.4220   -2.2900 c3        1 MOL     -0.162054
     95 C30        -2.0620   -0.9580   -1.4430 c         1 MOL      0.617219
     96 O16        -2.1290    0.1560   -0.9100 o         1 MOL     -0.526412
     97 C31        -1.0650   -1.0010   -3.8000 c3        1 MOL      0.157268
     98 C32        -0.0760   -1.8300   -4.7190 c3        1 MOL     -0.035843
     99 C33        -0.7970    0.5470   -4.0760 c3        1 MOL     -0.384554
    100 C34         1.4160   -1.8140   -4.4720 c3        1 MOL     -0.025260
    101 H42        -1.0500   -3.5040   -3.0230 hn        1 MOL      0.247272
    102 H43         0.0190   -1.0210   -1.9130 h1        1 MOL      0.116627
    103 H44        -2.1010   -1.2170   -4.0820 hc        1 MOL      0.018006
    104 H45        -0.2100   -1.4180   -5.7210 hc        1 MOL     -0.013365
    105 H46        -0.3550   -2.8790   -4.7280 hc        1 MOL     -0.013365
    106 H47        -0.7090    0.6830   -5.1610 hc        1 MOL      0.114741
    107 H48        -1.6620    1.1140   -3.7320 hc        1 MOL      0.114741
    108 H49         0.0480    0.9180   -3.5020 hc        1 MOL      0.114741
    109 H50         1.8490   -0.8800   -4.8160 hc        1 MOL      0.018772
    110 H51         1.5920   -1.9400   -3.4030 hc        1 MOL      0.018772
    111 H52         1.9430   -2.6480   -4.9370 hc        1 MOL      0.018772
    112 N10        -3.0100   -1.9200   -1.2370 n         1 MOL     -0.503575
    113 C35        -4.2350   -1.7690   -0.3450 c3        1 MOL      0.125265
    114 C36        -5.4610   -2.2810   -1.1040 c         1 MOL      0.583270
    115 O17        -5.3620   -3.2710   -1.8160 o         1 MOL     -0.558922
    116 C37        -4.2100   -2.2450    1.0940 c3        1 MOL      0.396809
    117 C38        -3.4120   -3.5110    1.4450 c3        1 MOL     -0.498158
    118 O18        -3.7940   -1.2570    1.9640 oh        1 MOL     -0.630288
    119 H53        -2.8910   -2.8820   -1.5280 hn        1 MOL      0.243349
    120 H54        -4.3750   -0.6970   -0.2820 h1        1 MOL      0.009740
    121 H55        -5.2680   -2.4050    1.3160 h1        1 MOL      0.004729
    122 H56        -2.8940   -1.4820    2.1990 ho        1 MOL      0.407281
    123 H57        -3.7900   -4.4110    0.9620 hc        1 MOL      0.135829
    124 H58        -2.3820   -3.3820    1.1120 hc        1 MOL      0.135829
    125 H59        -3.3840   -3.7260    2.5150 hc        1 MOL      0.135829
    126 N11        -6.5910   -1.6570   -0.8740 n         1 MOL     -0.508212
    127 C39        -7.8980   -1.9820   -1.5760 c3        1 MOL     -0.192063
    128 C40        -8.9120   -0.8250   -1.6850 c         1 MOL      0.726801
    129 O19        -9.5750   -0.6200   -2.6900 o         1 MOL     -0.564869
    130 C41        -8.4000   -3.2540   -0.8470 c3        1 MOL      0.347718
    131 C42        -9.6840   -3.8710   -1.3750 c3        1 MOL     -0.447129
    132 O20        -8.6730   -2.8980    0.5300 oh        1 MOL     -0.651345
    133 H60        -6.6170   -0.9690   -0.1450 hn        1 MOL      0.322193
    134 H61        -7.6390   -2.2090   -2.6110 h1        1 MOL      0.141320
    135 H62        -7.5920   -3.9820   -0.7910 h1        1 MOL      0.077846
    136 H63        -9.4930   -3.3240    0.7950 ho        1 MOL      0.402264
    137 H64       -10.5410   -3.3420   -0.9600 hc        1 MOL      0.119720
    138 H65        -9.6920   -3.6660   -2.4450 hc        1 MOL      0.119720
    139 H66        -9.6790   -4.9280   -1.0930 hc        1 MOL      0.119720
    140 N12        -9.0970   -0.0600   -0.5860 n         1 MOL     -0.644660
    141 C43        -9.8540    1.2000   -0.4460 c3        1 MOL      0.290735
    142 C44        -9.1190    2.0610    0.5560 c         1 MOL      0.285716
    143 O21        -8.7580    1.6330    1.6100 o         1 MOL     -0.471176
    144 C45       -11.3520    0.9100    0.0030 c3        1 MOL     -0.356094
    145 C46       -12.2840    2.1070   -0.2830 c3        1 MOL     -0.063041
    146 C47       -13.6810    1.7250    0.2540 c3        1 MOL      0.253668
    147 C48       -14.7570    2.7650   -0.0430 c3        1 MOL      0.067419
    148 N13       -16.0800    2.3390    0.4390 n4        1 MOL     -0.301558
    149 H67        -8.5800   -0.4220    0.2020 hn        1 MOL      0.313917
    150 H68        -9.7840    1.6830   -1.4170 h1        1 MOL      0.023821
    151 H69       -11.1690    0.5720    1.0270 hc        1 MOL      0.140392
    152 H70       -11.6590    0.0670   -0.6220 hc        1 MOL      0.140392
    153 H71       -12.4770    2.2200   -1.3540 hc        1 MOL      0.020349
    154 H72       -11.9390    3.0130    0.2010 hc        1 MOL      0.020349
    155 H73       -13.7010    1.5540    1.3370 hc        1 MOL     -0.052865
    156 H74       -14.0100    0.7770   -0.1630 hc        1 MOL     -0.052865
    157 H75       -14.7410    2.8330   -1.1290 hx        1 MOL      0.058582
    158 H76       -14.4550    3.7450    0.3160 hx        1 MOL      0.058582
    159 H77       -15.9940    2.3250    1.4510 hn        1 MOL      0.275135
    160 H78       -16.8450    2.9020    0.1070 hn        1 MOL      0.275135
    161 H79       -16.3950    1.4250    0.1490 hn        1 MOL      0.275135
    162 N14        -9.0450    3.3490    0.3390 n         1 MOL     -0.078031
    163 C49        -8.4160    4.3580    1.2020 c3        1 MOL     -0.032920
    164 C50        -6.8830    4.0950    1.1300 c         1 MOL      0.479665
    165 O22        -6.2910    4.1520    2.2010 o         1 MOL     -0.514690
    166 C51        -8.7040    5.8160    0.5760 c3        1 MOL      0.094106
    167 C52       -10.0900    6.4120    0.9020 c3        1 MOL     -0.265188
    168 C53       -10.2400    7.7220    0.1880 c         1 MOL      0.741160
    169 O23       -10.1900    8.6880    0.9140 o         1 MOL     -0.687267
    170 O24       -10.3940    7.7280   -1.0150 o         1 MOL     -0.687267
    171 H80        -9.6130    3.6320   -0.4480 hn        1 MOL      0.167970
    172 H81        -8.8870    4.2540    2.1860 h1        1 MOL      0.084171
    173 H82        -8.6580    5.7180   -0.5170 hc        1 MOL      0.031330
    174 H83        -7.8970    6.4900    0.8590 hc        1 MOL      0.031330
    175 H84       -10.1300    6.5840    1.9730 hc        1 MOL      0.027788
    176 H85       -10.8240    5.6710    0.6010 hc        1 MOL      0.027788
    177 N15        -6.1810    3.8470   -0.0340 n         1 MOL     -0.467541
    178 C54        -6.4360    4.3110   -1.4340 c3        1 MOL      0.018682
    179 H86        -5.6650    3.9140   -2.0940 h1        1 MOL      0.032622
    180 H87        -7.4130    3.9550   -1.7640 h1        1 MOL      0.032622
    181 H88        -6.4160    5.4000   -1.4660 h1        1 MOL      0.032622
    182 H89        -5.2410    3.5320    0.1590 hn        1 MOL      0.320871
    183 Ca1         6.5260    4.7680    0.0750 Ca        1 MOL      1.735654
    184 O25         4.0810    5.2490   -1.0770 oh        1 MOL     -0.855132
    185 H90         3.7300    6.1430   -1.1050 ho        1 MOL      0.425997
    186 H91         3.3160    4.6880   -1.2360 ho        1 MOL      0.425997
    187 O26         7.3770    3.0470    2.2570 oh        1 MOL     -0.855132
    188 H92         6.7900    3.0930    3.0020 ho        1 MOL      0.425997
    189 H93         7.3780    2.1210    2.0060 ho        1 MOL      0.425997
@<TRIPOS>BOND
     1    1    2 1   
     2    1    4 1   
     3    1    5 1   
     4    1    6 1   
     5    2    3 2   
     6    2    7 1   
     7    7    8 1   
     8    7   15 1   
     9    8    9 1   
    10    8   11 1   
    11    8   16 1   
    12    9   10 2   
    13    9   19 1   
    14   11   12 1   
    15   11   17 1   
    16   11   18 1   
    17   12   13 1   
    18   12   14 1   
    19   19   20 1   
    20   19   28 1   
    21   20   21 1   
    22   20   23 1   
    23   20   29 1   
    24   21   22 2   
    25   21   41 1   
    26   23   24 1   
    27   23   30 1   
    28   23   31 1   
    29   24   25 1   
    30   24   32 1   
    31   24   33 1   
    32   25   26 1   
    33   25   34 1   
    34   25   35 1   
    35   26   27 1   
    36   26   36 1   
    37   26   37 1   
    38   27   38 1   
    39   27   39 1   
    40   27   40 1   
    41   41   42 1   
    42   41   49 1   
    43   42   43 1   
    44   42   45 1   
    45   42   50 1   
    46   43   44 2   
    47   43   53 1   
    48   45   46 1   
    49   45   51 1   
    50   45   52 1   
    51   46   47 1   
    52   46   48 1   
    53   53   54 1   
    54   53   57 1   
    55   54   55 1   
    56   54   58 1   
    57   54   59 1   
    58   55   56 2   
    59   55   60 1   
    60   60   61 1   
    61   60   68 1   
    62   61   62 1   
    63   61   64 1   
    64   61   69 1   
    65   62   63 2   
    66   62   72 1   
    67   64   65 1   
    68   64   70 1   
    69   64   71 1   
    70   65   66 1   
    71   65   67 1   
    72   72   73 1   
    73   72   76 1   
    74   73   74 1   
    75   73   77 1   
    76   73   78 1   
    77   74   75 2   
    78   74   79 1   
    79   79   80 1   
    80   79   86 1   
    81   80   81 1   
    82   80   83 1   
    83   80   87 1   
    84   81   82 2   
    85   81   93 1   
    86   83   84 1   
    87   83   85 1   
    88   83   88 1   
    89   84   90 1   
    90   84   91 1   
    91   84   92 1   
    92   85   89 1   
    93   93   94 1   
    94   93  101 1   
    95   94   95 1   
    96   94   97 1   
    97   94  102 1   
    98   95   96 2   
    99   95  112 1   
   100   97   98 1   
   101   97   99 1   
   102   97  103 1   
   103   98  100 1   
   104   98  104 1   
   105   98  105 1   
   106   99  106 1   
   107   99  107 1   
   108   99  108 1   
   109  100  109 1   
   110  100  110 1   
   111  100  111 1   
   112  112  113 1   
   113  112  119 1   
   114  113  114 1   
   115  113  116 1   
   116  113  120 1   
   117  114  115 2   
   118  114  126 1   
   119  116  117 1   
   120  116  118 1   
   121  116  121 1   
   122  117  123 1   
   123  117  124 1   
   124  117  125 1   
   125  118  122 1   
   126  126  127 1   
   127  126  133 1   
   128  127  128 1   
   129  127  130 1   
   130  127  134 1   
   131  128  129 2   
   132  128  140 1   
   133  130  131 1   
   134  130  132 1   
   135  130  135 1   
   136  131  137 1   
   137  131  138 1   
   138  131  139 1   
   139  132  136 1   
   140  140  141 1   
   141  140  149 1   
   142  141  142 1   
   143  141  144 1   
   144  141  150 1   
   145  142  143 2   
   146  142  162 1   
   147  144  145 1   
   148  144  151 1   
   149  144  152 1   
   150  145  146 1   
   151  145  153 1   
   152  145  154 1   
   153  146  147 1   
   154  146  155 1   
   155  146  156 1   
   156  147  148 1   
   157  147  157 1   
   158  147  158 1   
   159  148  159 1   
   160  148  160 1   
   161  148  161 1   
   162  162  163 1   
   163  162  171 1   
   164  163  164 1   
   165  163  166 1   
   166  163  172 1   
   167  164  165 2   
   168  164  177 1   
   169  166  167 1   
   170  166  173 1   
   171  166  174 1   
   172  167  168 1   
   173  167  175 1   
   174  167  176 1   
   175  168  169 1   
   176  168  170 1   
   177  177  178 1   
   178  177  182 1   
   179  178  179 1   
   180  178  180 1   
   181  178  181 1   
   182  184  185 1   
   183  184  186 1   
   184  187  188 1   
   185  187  189 1   
@<TRIPOS>SUBSTRUCTURE
     1 MOL         1 TEMP              0 ****  ****    0 ROOT
