@<TRIPOS>MOLECULE
MOL
  192   187     1     0     0
SMALL
resp


@<TRIPOS>ATOM
      1 C1         -6.1020   -4.9260    2.4200 c3        1 MOL     -0.167346
      2 C2         -4.7790   -4.2570    1.8880 c         1 MOL      0.594545
      3 O1         -4.1250   -3.4710    2.5670 o         1 MOL     -0.529593
      4 H1         -6.7400   -4.1630    2.8660 hc        1 MOL      0.020915
      5 H2         -6.6300   -5.4000    1.5920 hc        1 MOL      0.020915
      6 H3         -5.8550   -5.6760    3.1710 hc        1 MOL      0.020915
      7 N1         -4.3260   -4.6150    0.6930 n         1 MOL     -0.338147
      8 C3         -3.2650   -3.9360   -0.1090 c3        1 MOL      0.041392
      9 C4         -1.8450   -4.0240    0.3800 c         1 MOL      0.493336
     10 O2         -0.9270   -3.3210   -0.1090 o         1 MOL     -0.560526
     11 C5         -3.6110   -2.4230   -0.5010 c3        1 MOL     -0.250006
     12 C6         -5.1420   -2.1760   -0.6960 c         1 MOL      0.395419
     13 O3         -5.7010   -2.4090   -1.7820 o         1 MOL     -0.633293
     14 O4         -5.8660   -1.8210    0.2240 o         1 MOL     -0.633293
     15 H4         -4.7950   -5.3580    0.2000 hn        1 MOL      0.244447
     16 H5         -3.1790   -4.5530   -1.0160 h1        1 MOL      0.079992
     17 H6         -3.0060   -2.2550   -1.3950 hc        1 MOL      0.148923
     18 H7         -3.2110   -1.7580    0.2650 hc        1 MOL      0.148923
     19 N2         -1.5300   -4.9040    1.2780 n         1 MOL     -0.353402
     20 C7         -0.1620   -5.0970    1.8660 c3        1 MOL      0.143418
     21 C8          0.5600   -6.2860    1.2290 c         1 MOL      0.505145
     22 O5          0.0800   -7.4190    1.2340 o         1 MOL     -0.613699
     23 C9         -0.1710   -5.3200    3.4520 c3        1 MOL      0.178821
     24 C10        -0.9770   -4.2020    4.1420 c3        1 MOL     -0.009792
     25 C11         1.2030   -5.4710    4.0280 c3        1 MOL     -0.275305
     26 C12        -1.5630   -4.4540    5.5670 c3        1 MOL     -0.337861
     27 H8         -2.2520   -5.5280    1.6170 hn        1 MOL      0.160031
     28 H9          0.3620   -4.1870    1.5730 h1        1 MOL     -0.045721
     29 H10        -0.6230   -6.2840    3.6710 hc        1 MOL     -0.021583
     30 H11        -1.8230   -3.9020    3.5390 hc        1 MOL      0.083408
     31 H12        -0.3850   -3.2940    4.1630 hc        1 MOL      0.083408
     32 H13         1.0330   -6.0000    4.9660 hc        1 MOL      0.053765
     33 H14         1.8730   -5.9920    3.3370 hc        1 MOL      0.053765
     34 H15         1.6790   -4.5130    4.2350 hc        1 MOL      0.053765
     35 H16        -0.6910   -4.6330    6.1990 hc        1 MOL      0.079067
     36 H17        -2.0980   -3.5820    5.9570 hc        1 MOL      0.079067
     37 H18        -2.2560   -5.2920    5.5260 hc        1 MOL      0.079067
     38 N3          1.6870   -6.1240    0.5770 n         1 MOL     -0.284624
     39 C13         2.3530   -4.9140    0.0380 c3        1 MOL     -0.002430
     40 C14         3.0710   -5.3090   -1.2490 c         1 MOL      0.590023
     41 O6          3.3790   -6.4710   -1.4190 o         1 MOL     -0.544053
     42 C15         3.4840   -4.3160    0.9180 c3        1 MOL     -0.297300
     43 C16         4.1070   -2.9710    0.4880 c         1 MOL      0.724342
     44 O7          5.2710   -2.9510    0.0330 o         1 MOL     -0.654970
     45 O8          3.4340   -1.9380    0.5060 o         1 MOL     -0.654970
     46 H19         2.0800   -7.0360    0.3910 hn        1 MOL      0.239490
     47 H20         1.6860   -4.0740   -0.1800 h1        1 MOL      0.040931
     48 H21         4.2860   -5.0150    1.1910 hc        1 MOL      0.069136
     49 H22         3.0840   -4.0670    1.9010 hc        1 MOL      0.069136
     50 N4          3.3630   -4.3460   -2.1510 n         1 MOL     -0.474351
     51 C17         4.0960   -4.5990   -3.3910 c3        1 MOL     -0.106271
     52 C18         5.1800   -3.6030   -3.8690 c         1 MOL      0.536645
     53 O9          5.7740   -3.8010   -4.9200 o         1 MOL     -0.581983
     54 H23         3.1920   -3.3870   -1.8800 hn        1 MOL      0.348224
     55 H24         3.3190   -4.8350   -4.1130 h1        1 MOL      0.095443
     56 H25         4.4390   -5.6300   -3.2770 h1        1 MOL      0.095443
     57 N5          5.5710   -2.5820   -3.0760 n         1 MOL     -0.361259
     58 C19         6.5740   -1.5270   -3.3860 c3        1 MOL      0.118310
     59 C20         7.5910   -1.1160   -2.2810 c         1 MOL      0.442032
     60 O10         8.7270   -0.7480   -2.6620 o         1 MOL     -0.582270
     61 C21         5.9070   -0.2760   -4.0320 c3        1 MOL     -0.262273
     62 C22         4.7480    0.3330   -3.1500 c         1 MOL      0.728873
     63 O11         5.0660    0.8170   -2.0200 o         1 MOL     -0.683883
     64 O12         3.5640    0.3320   -3.5640 o         1 MOL     -0.683883
     65 H26         5.1830   -2.5000   -2.1480 hn        1 MOL      0.224728
     66 H27         7.2760   -2.0490   -4.0300 h1        1 MOL      0.068253
     67 H28         5.5510   -0.4070   -5.0440 hc        1 MOL      0.036763
     68 H29         6.7500    0.4130   -4.0740 hc        1 MOL      0.036763
     69 N6          7.2820   -1.2330   -0.9600 n         1 MOL     -0.269756
     70 C23         8.2190   -0.8570    0.0430 c3        1 MOL     -0.110912
     71 C24         8.3370    0.6080    0.3330 c         1 MOL      0.487997
     72 O13         9.1390    1.0150    1.1750 o         1 MOL     -0.619426
     73 H30         6.4100   -1.6140   -0.6030 hn        1 MOL      0.246088
     74 H31         9.1890   -1.2560   -0.2510 h1        1 MOL      0.070129
     75 H32         7.9650   -1.4340    0.9350 h1        1 MOL      0.070129
     76 N7          7.5030    1.3560   -0.3540 n         1 MOL      0.067570
     77 C25         7.4040    2.8650   -0.1930 c3        1 MOL      0.045336
     78 C26         6.9710    3.3150    1.2270 c         1 MOL      0.465803
     79 O14         7.1910    4.4770    1.5430 o         1 MOL     -0.545765
     80 C27         8.6000    3.5810   -0.9240 c3        1 MOL      0.004978
     81 C28         8.9980    2.9840   -2.2690 c3        1 MOL     -0.081399
     82 C29         9.8050    3.9410   -3.0840 c         1 MOL      0.671266
     83 N8         10.0670    3.5670   -4.2520 n         1 MOL     -0.784457
     84 O15        10.3570    4.9290   -2.6260 o         1 MOL     -0.612765
     85 H33         6.8360    1.0080   -1.0150 hn        1 MOL      0.036905
     86 H34         6.5340    3.0310   -0.8320 h1        1 MOL      0.051915
     87 H35         9.4650    3.6100   -0.2600 hc        1 MOL      0.008774
     88 H36         8.2450    4.6030   -1.0130 hc        1 MOL      0.008774
     89 H37         8.1030    2.7860   -2.8640 hc        1 MOL      0.022147
     90 H38         9.5190    2.0520   -2.0540 hc        1 MOL      0.022147
     91 H39         9.6260    2.6910   -4.4850 hn        1 MOL      0.353846
     92 H40        10.7020    4.1090   -4.8160 hn        1 MOL      0.353846
     93 N9          6.3310    2.4790    1.9920 n         1 MOL     -0.393640
     94 C30         5.8270    2.7070    3.4380 c3        1 MOL     -0.044195
     95 C31         4.3190    2.2760    3.6300 c         1 MOL      0.475525
     96 O16         3.7910    2.6530    4.7190 o         1 MOL     -0.582072
     97 C32         6.7160    1.9920    4.4220 c3        1 MOL      0.338481
     98 C33         6.5360    0.4130    4.2660 c3        1 MOL     -0.279820
     99 C34         8.2120    2.2980    4.3790 c3        1 MOL     -0.279820
    100 H41         6.1970    1.5790    1.5520 hn        1 MOL      0.225380
    101 H42         5.9130    3.7780    3.6240 h1        1 MOL      0.100329
    102 H43         6.4170    2.2480    5.4370 hc        1 MOL     -0.053887
    103 H44         5.5080    0.1150    4.0960 hc        1 MOL      0.056952
    104 H45         7.2110   -0.0490    3.5380 hc        1 MOL      0.056952
    105 H46         6.8990    0.0090    5.2130 hc        1 MOL      0.056952
    106 H47         8.6790    1.7670    5.2140 hc        1 MOL      0.056952
    107 H48         8.6780    1.9730    3.4450 hc        1 MOL      0.056952
    108 H49         8.3130    3.3760    4.4660 hc        1 MOL      0.056952
    109 N10         3.6570    1.6170    2.6800 n         1 MOL     -0.375617
    110 C35         2.1940    1.2740    2.6420 c3        1 MOL      0.284014
    111 C36         1.4640    1.6960    1.3590 c         1 MOL      0.500004
    112 O17         2.0830    1.8740    0.3230 o         1 MOL     -0.485614
    113 C37         2.0750   -0.1920    3.0220 c3        1 MOL     -0.033489
    114 C38         0.7900   -0.8350    2.5050 c         1 MOL      0.374546
    115 N11         0.9000   -1.5290    1.4350 n         1 MOL     -0.557063
    116 O18        -0.2930   -0.5130    2.9850 o         1 MOL     -0.598189
    117 H50         4.1970    1.4950    1.8390 hn        1 MOL      0.217228
    118 H51         1.6420    1.8750    3.3750 h1        1 MOL     -0.000004
    119 H52         2.1490   -0.4120    4.0900 hc        1 MOL      0.018455
    120 H53         2.7860   -0.8270    2.5000 hc        1 MOL      0.018455
    121 H54         1.7890   -1.7530    1.0180 hn        1 MOL      0.352677
    122 H55         0.0550   -1.9350    1.0610 hn        1 MOL      0.352677
    123 N12         0.1310    1.8990    1.4320 n         1 MOL     -0.644675
    124 C39        -0.6900    2.2140    0.3070 c3        1 MOL      0.278070
    125 C40        -1.9610    3.0160    0.7110 c         1 MOL      0.587519
    126 O19        -2.6570    2.6330    1.5920 o         1 MOL     -0.550479
    127 C41        -1.0590    0.8780   -0.3260 c3        1 MOL     -0.423852
    128 C42        -2.0290    0.9940   -1.5000 ca        1 MOL      0.052777
    129 C43        -1.5310    1.3950   -2.7270 ca        1 MOL     -0.094648
    130 C44        -3.4430    0.7260   -1.3450 ca        1 MOL     -0.094648
    131 C45        -2.4430    1.5370   -3.8130 ca        1 MOL     -0.315482
    132 C46        -4.2970    0.7710   -2.4800 ca        1 MOL     -0.315482
    133 C47        -3.8300    1.2480   -3.7000 ca        1 MOL      0.398602
    134 O20        -4.7230    1.3460   -4.7150 oh        1 MOL     -0.578163
    135 H56        -0.2680    1.5350    2.2870 hn        1 MOL      0.347310
    136 H57        -0.0730    2.7640   -0.4030 h1        1 MOL      0.056083
    137 H58        -1.4810    0.3080    0.5010 hc        1 MOL      0.165799
    138 H59        -0.1470    0.3920   -0.6920 hc        1 MOL      0.165799
    139 H60        -0.4800    1.5550   -2.8730 ha        1 MOL      0.157211
    140 H61        -3.9610    0.5820   -0.4200 ha        1 MOL      0.157211
    141 H62        -2.0260    1.7230   -4.7930 ha        1 MOL      0.144073
    142 H63        -5.3280    0.4560   -2.3410 ha        1 MOL      0.144073
    143 H64        -5.6210    1.2920   -4.3940 ho        1 MOL      0.416771
    144 N13        -2.1970    4.1270    0.0440 n         1 MOL     -0.722546
    145 C48        -3.2830    5.0530    0.3830 c3        1 MOL      0.471775
    146 C49        -4.1970    5.2770   -0.8280 c         1 MOL      0.451667
    147 O21        -3.9450    6.1160   -1.6910 o         1 MOL     -0.540047
    148 C50        -2.7740    6.3440    0.9290 c3        1 MOL      0.029329
    149 C51        -3.8110    7.2670    1.5010 c3        1 MOL     -0.325030
    150 C52        -4.5260    8.1600    0.4730 c         1 MOL      0.787921
    151 O22        -3.8730    8.9420   -0.2600 o         1 MOL     -0.652808
    152 O23        -5.7330    8.2990    0.5510 o         1 MOL     -0.652808
    153 H65        -1.4620    4.3530   -0.6060 hn        1 MOL      0.320109
    154 H66        -3.8750    4.6020    1.1790 h1        1 MOL     -0.058739
    155 H67        -2.0430    6.7890    0.2570 hc        1 MOL      0.001655
    156 H68        -2.1790    6.0200    1.7830 hc        1 MOL      0.001655
    157 H69        -3.2680    7.9550    2.1410 hc        1 MOL      0.059783
    158 H70        -4.5310    6.7420    2.1300 hc        1 MOL      0.059783
    159 N14        -5.4130    4.7160   -0.9810 n         1 MOL     -0.549674
    160 C53        -5.9760    3.6420   -0.1370 c3        1 MOL      0.351172
    161 C54        -6.3610    4.0700    1.1950 c         1 MOL      0.426296
    162 O24        -7.0490    5.1310    1.2720 o         1 MOL     -0.527915
    163 C55        -7.0790    2.9100   -0.9270 c3        1 MOL     -0.302249
    164 C56        -7.6180    1.6990   -0.2220 c3        1 MOL     -0.541573
    165 C57        -8.5690    0.9440   -1.1160 c         1 MOL      1.117258
    166 O25        -7.9930    0.1350   -1.8640 o         1 MOL     -0.752942
    167 O26        -9.7900    1.1630   -1.2140 o         1 MOL     -0.752942
    168 H71        -5.9200    4.9770   -1.8130 hn        1 MOL      0.336982
    169 H72        -5.1810    2.9020   -0.0630 h1        1 MOL     -0.044218
    170 H73        -6.6830    2.7430   -1.9200 hc        1 MOL      0.085958
    171 H74        -7.9570    3.5220   -1.1330 hc        1 MOL      0.085958
    172 H75        -8.1320    2.0130    0.6820 hc        1 MOL      0.126161
    173 H76        -6.8520    0.9920    0.0700 hc        1 MOL      0.126161
    174 N15        -6.1990    3.1710    2.1460 n         1 MOL     -0.078343
    175 C58        -6.4530    3.3280    3.5660 c3        1 MOL     -0.239687
    176 H77        -6.0080    4.2600    3.9130 h1        1 MOL      0.089829
    177 H78        -7.5290    3.3510    3.7430 h1        1 MOL      0.089829
    178 H79        -6.0140    2.4910    4.1090 h1        1 MOL      0.089829
    179 H80        -5.7450    2.3010    1.9070 hn        1 MOL      0.192189
    180 Ca1        -8.1430   -2.4570   -1.3830 Ca        1 MOL      1.655171
    181 O27       -10.5510   -1.3580   -1.4260 oh        1 MOL     -0.919936
    182 H81       -11.3510   -1.3820   -1.9560 ho        1 MOL      0.406099
    183 H82       -10.3670   -0.4280   -1.3060 ho        1 MOL      0.406099
    184 O28        -8.6410   -1.6820    1.1700 oh        1 MOL     -0.919936
    185 H83        -7.7310   -1.9510    1.2100 ho        1 MOL      0.406099
    186 H84        -8.8210   -1.2960    2.0370 ho        1 MOL      0.406099
    187 O29        -8.9610   -1.9650   -4.0400 oh        1 MOL     -0.919936
    188 H85        -8.4040   -1.2990   -4.4330 ho        1 MOL      0.406099
    189 H86        -8.9910   -2.6680   -4.6950 ho        1 MOL      0.406099
    190 O30        -7.4560   -4.4770   -2.7150 oh        1 MOL     -0.919936
    191 H87        -6.8760   -4.6830   -3.4470 ho        1 MOL      0.406099
    192 H88        -8.2240   -5.0270   -2.8570 ho        1 MOL      0.406099
@<TRIPOS>BOND
     1    1    2 1   
     2    1    4 1   
     3    1    5 1   
     4    1    6 1   
     5    2    3 2   
     6    2    7 1   
     7    7    8 1   
     8    7   15 1   
     9    8    9 1   
    10    8   11 1   
    11    8   16 1   
    12    9   10 2   
    13    9   19 1   
    14   11   12 1   
    15   11   17 1   
    16   11   18 1   
    17   12   13 1   
    18   12   14 1   
    19   19   20 1   
    20   19   27 1   
    21   20   21 1   
    22   20   23 1   
    23   20   28 1   
    24   21   22 2   
    25   21   38 1   
    26   23   24 1   
    27   23   25 1   
    28   23   29 1   
    29   24   26 1   
    30   24   30 1   
    31   24   31 1   
    32   25   32 1   
    33   25   33 1   
    34   25   34 1   
    35   26   35 1   
    36   26   36 1   
    37   26   37 1   
    38   38   39 1   
    39   38   46 1   
    40   39   40 1   
    41   39   42 1   
    42   39   47 1   
    43   40   41 2   
    44   40   50 1   
    45   42   43 1   
    46   42   48 1   
    47   42   49 1   
    48   43   44 1   
    49   43   45 1   
    50   50   51 1   
    51   50   54 1   
    52   51   52 1   
    53   51   55 1   
    54   51   56 1   
    55   52   53 2   
    56   52   57 1   
    57   57   58 1   
    58   57   65 1   
    59   58   59 1   
    60   58   61 1   
    61   58   66 1   
    62   59   60 2   
    63   59   69 1   
    64   61   62 1   
    65   61   67 1   
    66   61   68 1   
    67   62   63 1   
    68   62   64 1   
    69   69   70 1   
    70   69   73 1   
    71   70   71 1   
    72   70   74 1   
    73   70   75 1   
    74   71   72 2   
    75   71   76 1   
    76   76   77 1   
    77   76   85 1   
    78   77   78 1   
    79   77   80 1   
    80   77   86 1   
    81   78   79 2   
    82   78   93 1   
    83   80   81 1   
    84   80   87 1   
    85   80   88 1   
    86   81   82 1   
    87   81   89 1   
    88   81   90 1   
    89   82   83 1   
    90   82   84 2   
    91   83   91 1   
    92   83   92 1   
    93   93   94 1   
    94   93  100 1   
    95   94   95 1   
    96   94   97 1   
    97   94  101 1   
    98   95   96 2   
    99   95  109 1   
   100   97   98 1   
   101   97   99 1   
   102   97  102 1   
   103   98  103 1   
   104   98  104 1   
   105   98  105 1   
   106   99  106 1   
   107   99  107 1   
   108   99  108 1   
   109  109  110 1   
   110  109  117 1   
   111  110  111 1   
   112  110  113 1   
   113  110  118 1   
   114  111  112 2   
   115  111  123 1   
   116  113  114 1   
   117  113  119 1   
   118  113  120 1   
   119  114  115 1   
   120  114  116 2   
   121  115  121 1   
   122  115  122 1   
   123  123  124 1   
   124  123  135 1   
   125  124  125 1   
   126  124  127 1   
   127  124  136 1   
   128  125  126 2   
   129  125  144 1   
   130  127  128 1   
   131  127  137 1   
   132  127  138 1   
   133  128  129 ar  
   134  128  130 ar  
   135  129  131 ar  
   136  129  139 1   
   137  130  132 ar  
   138  130  140 1   
   139  131  133 ar  
   140  131  141 1   
   141  132  133 ar  
   142  132  142 1   
   143  133  134 1   
   144  134  143 1   
   145  144  145 1   
   146  144  153 1   
   147  145  146 1   
   148  145  148 1   
   149  145  154 1   
   150  146  147 2   
   151  146  159 1   
   152  148  149 1   
   153  148  155 1   
   154  148  156 1   
   155  149  150 1   
   156  149  157 1   
   157  149  158 1   
   158  150  151 1   
   159  150  152 1   
   160  159  160 1   
   161  159  168 1   
   162  160  161 1   
   163  160  163 1   
   164  160  169 1   
   165  161  162 2   
   166  161  174 1   
   167  163  164 1   
   168  163  170 1   
   169  163  171 1   
   170  164  165 1   
   171  164  172 1   
   172  164  173 1   
   173  165  166 1   
   174  165  167 1   
   175  174  175 1   
   176  174  179 1   
   177  175  176 1   
   178  175  177 1   
   179  175  178 1   
   180  181  182 1   
   181  181  183 1   
   182  184  185 1   
   183  184  186 1   
   184  187  188 1   
   185  187  189 1   
   186  190  191 1   
   187  190  192 1   
@<TRIPOS>SUBSTRUCTURE
     1 MOL         1 TEMP              0 ****  ****    0 ROOT
