@<TRIPOS>MOLECULE
MOL
  188   182     1     0     0
SMALL
resp


@<TRIPOS>ATOM
      1 C1          5.3240    0.0340    5.4940 c3        1 MOL     -0.503141
      2 C2          4.5920    0.1510    4.1720 c         1 MOL      0.688620
      3 O1          3.3560   -0.0260    4.1620 o         1 MOL     -0.626419
      4 H1          5.1580   -0.9590    5.9130 hc        1 MOL      0.130351
      5 H2          6.3920    0.1870    5.3330 hc        1 MOL      0.130351
      6 H3          4.9470    0.7870    6.1860 hc        1 MOL      0.130351
      7 N1          5.3590    0.2430    3.0930 n         1 MOL     -0.411602
      8 C3          4.7270    0.3100    1.7680 c3        1 MOL     -0.066352
      9 C4          4.6020   -1.0510    1.0590 c         1 MOL      0.643293
     10 O2          3.7880   -1.1400    0.0880 o         1 MOL     -0.779791
     11 C5          5.5650    1.3140    0.9590 c3        1 MOL     -0.103123
     12 C6          7.1000    1.0820    1.2810 c         1 MOL      0.745762
     13 O3          7.6690    0.4400    0.3760 o         1 MOL     -0.674540
     14 O4          7.6930    1.6620    2.1910 o         1 MOL     -0.674540
     15 H4          6.3550    0.2000    3.2470 hn        1 MOL      0.226739
     16 H5          3.7080    0.6910    1.8490 h1        1 MOL      0.134365
     17 H6          5.1990    2.3400    1.0190 hc        1 MOL      0.022473
     18 H7          5.4710    1.1300   -0.1120 hc        1 MOL      0.022473
     19 N2          5.2070   -2.1380    1.5090 n         1 MOL     -0.565299
     20 C7          4.9660   -3.5270    1.1180 c3        1 MOL      0.118254
     21 C8          5.2420   -3.7130   -0.3610 c         1 MOL      0.412569
     22 O5          6.3500   -3.4040   -0.8440 o         1 MOL     -0.445355
     23 C9          5.7260   -4.4990    2.0510 c3        1 MOL     -0.158190
     24 C10         5.0920   -4.6170    3.4770 c3        1 MOL      0.166277
     25 C11         5.8430   -5.6540    4.2680 c3        1 MOL     -0.129553
     26 C12         5.1840   -5.6780    5.6720 c3        1 MOL      0.074477
     27 N3          5.6600   -6.8170    6.3960 n4        1 MOL     -0.211190
     28 H8          5.8340   -2.0190    2.2900 hn        1 MOL      0.366951
     29 H9          3.9110   -3.7220    1.2930 h1        1 MOL      0.026926
     30 H10         6.7460   -4.1580    2.2110 hc        1 MOL      0.069162
     31 H11         5.7600   -5.4550    1.5350 hc        1 MOL      0.069162
     32 H12         4.0140   -4.7850    3.3720 hc        1 MOL     -0.019553
     33 H13         5.2690   -3.6660    3.9680 hc        1 MOL     -0.019553
     34 H14         6.8840   -5.3450    4.2570 hc        1 MOL      0.054752
     35 H15         5.7220   -6.6080    3.7550 hc        1 MOL      0.054752
     36 H16         4.1070   -5.7560    5.6410 hx        1 MOL      0.068505
     37 H17         5.4190   -4.7310    6.1700 hx        1 MOL      0.068505
     38 H18         5.2420   -6.9230    7.3120 hn        1 MOL      0.265679
     39 H19         5.4940   -7.6730    5.8860 hn        1 MOL      0.265679
     40 H20         6.6540   -6.7740    6.5600 hn        1 MOL      0.265679
     41 N4          4.2150   -4.2130   -1.0830 n         1 MOL     -0.307644
     42 C13         4.1880   -4.3330   -2.5340 c3        1 MOL     -0.019462
     43 C14         4.4400   -2.9410   -3.2460 c         1 MOL      0.477892
     44 O6          4.9080   -2.9870   -4.3930 o         1 MOL     -0.533102
     45 C15         2.8080   -4.8480   -2.9600 c3        1 MOL     -0.246419
     46 C16         1.6650   -4.1530   -2.2560 c         1 MOL      0.759183
     47 O7          1.1650   -4.5770   -1.1740 o         1 MOL     -0.763247
     48 O8          1.1750   -3.1630   -2.8520 o         1 MOL     -0.763247
     49 H21         3.5270   -4.6700   -0.4920 hn        1 MOL      0.222711
     50 H22         4.9370   -5.0140   -2.9340 h1        1 MOL      0.086543
     51 H23         2.7650   -5.8950   -2.6680 hc        1 MOL      0.087007
     52 H24         2.6850   -4.8160   -4.0380 hc        1 MOL      0.087007
     53 N5          4.1290   -1.7960   -2.6130 n         1 MOL     -0.343760
     54 C17         4.4550   -0.4270   -3.1070 c3        1 MOL      0.154028
     55 C18         5.9330   -0.0960   -2.9350 c         1 MOL      0.657148
     56 O9          6.7040   -1.0570   -2.8760 o         1 MOL     -0.518852
     57 H25         3.8510   -1.8700   -1.6440 hn        1 MOL      0.388038
     58 H26         3.7960    0.2820   -2.5920 h1        1 MOL     -0.027688
     59 H27         4.2890   -0.4440   -4.1790 h1        1 MOL     -0.027688
     60 N6          6.4290    1.1070   -2.9810 n         1 MOL     -0.627978
     61 C19         5.6380    2.3630   -3.2760 c3        1 MOL      0.357302
     62 C20         5.8680    3.3990   -2.1580 c         1 MOL      0.307807
     63 O10         7.0130    3.6980   -1.7730 o         1 MOL     -0.459648
     64 C21         6.0070    2.8540   -4.7080 c3        1 MOL     -0.416845
     65 C22         5.1130    4.0470   -5.0700 c         1 MOL      0.724048
     66 N7          5.5380    5.2360   -5.3100 n         1 MOL     -0.746442
     67 O11         3.8920    3.9010   -5.0420 o         1 MOL     -0.597760
     68 H28         7.4300    1.1460   -2.8320 hn        1 MOL      0.359628
     69 H29         4.6000    2.0650   -3.3580 h1        1 MOL      0.016724
     70 H30         5.8300    2.0390   -5.4200 hc        1 MOL      0.124548
     71 H31         7.0880    2.9820   -4.7010 hc        1 MOL      0.124548
     72 H32         6.5120    5.4810   -5.3850 hn        1 MOL      0.356794
     73 H33         4.8590    5.9810   -5.3480 hn        1 MOL      0.356794
     74 N8          4.7900    3.9420   -1.5430 n         1 MOL     -0.311798
     75 C23         3.3760    3.7470   -1.7280 c3        1 MOL     -0.019779
     76 C24         2.4710    4.3600   -0.6380 c         1 MOL      0.615244
     77 O12         2.9180    5.1860    0.1810 o         1 MOL     -0.512053
     78 H34         4.9910    4.6480   -0.8390 hn        1 MOL      0.260006
     79 H35         3.1630    2.6820   -1.7560 h1        1 MOL      0.022317
     80 H36         3.0510    4.1560   -2.6900 h1        1 MOL      0.022317
     81 N9          1.1880    3.9150   -0.5940 n         1 MOL     -0.606167
     82 C25         0.2460    4.3260    0.4270 c3        1 MOL      0.212588
     83 C26        -0.7870    3.2280    0.6670 c         1 MOL      0.523387
     84 O13        -0.9600    2.3480   -0.1820 o         1 MOL     -0.569038
     85 C27        -0.3800    5.6850    0.1320 c3        1 MOL     -0.250518
     86 C28        -1.2030    6.3950    1.2530 ca        1 MOL      0.015583
     87 C29        -2.4240    7.0210    0.9480 ca        1 MOL     -0.064957
     88 C30        -0.5560    6.6160    2.5450 ca        1 MOL     -0.064957
     89 C31        -2.9780    7.7850    1.9520 ca        1 MOL     -0.277347
     90 C32        -1.1590    7.3470    3.5360 ca        1 MOL     -0.277347
     91 C33        -2.4130    7.9430    3.2310 ca        1 MOL      0.322460
     92 O14        -3.1910    8.6750    4.1270 oh        1 MOL     -0.512690
     93 H37         0.8560    3.2360   -1.2590 hn        1 MOL      0.317686
     94 H38         0.8930    4.4110    1.3020 h1        1 MOL      0.052807
     95 H39        -0.9290    5.6730   -0.8030 hc        1 MOL      0.118840
     96 H40         0.4160    6.3870   -0.1060 hc        1 MOL      0.118840
     97 H41        -2.7600    6.9540   -0.0750 ha        1 MOL      0.115661
     98 H42         0.4680    6.2920    2.6710 ha        1 MOL      0.115661
     99 H43        -3.9150    8.2990    1.8160 ha        1 MOL      0.150453
    100 H44        -0.6660    7.4890    4.4850 ha        1 MOL      0.150453
    101 H45        -2.8960    8.6030    5.0380 ho        1 MOL      0.382894
    102 N10        -1.5470    3.3010    1.7790 n         1 MOL     -0.407308
    103 C34        -2.8200    2.5250    1.8110 c3        1 MOL      0.027613
    104 C35        -3.8610    3.0110    0.7100 c         1 MOL      0.747593
    105 O15        -3.8360    4.1900    0.1850 o         1 MOL     -0.527822
    106 C36        -3.4650    2.4520    3.1440 c3        1 MOL      0.129477
    107 C37        -2.5160    1.6930    4.1380 c3        1 MOL     -0.075608
    108 C38        -3.6710    3.9440    3.5760 c3        1 MOL     -0.128921
    109 C39        -3.1290    1.3910    5.5400 c3        1 MOL     -0.197062
    110 H46        -1.5050    4.1080    2.3900 hn        1 MOL      0.165734
    111 H47        -2.4690    1.5160    1.6120 h1        1 MOL     -0.155090
    112 H48        -4.4730    2.0290    3.1450 hc        1 MOL      0.007596
    113 H49        -1.5070    2.0890    4.1700 hc        1 MOL      0.067133
    114 H50        -2.2390    0.7430    3.6670 hc        1 MOL      0.067133
    115 H51        -4.1420    3.9060    4.5490 hc        1 MOL      0.042647
    116 H52        -2.7080    4.3970    3.8060 hc        1 MOL      0.042647
    117 H53        -4.2960    4.4840    2.8720 hc        1 MOL      0.042647
    118 H54        -3.6800    0.4520    5.4650 hc        1 MOL      0.057068
    119 H55        -2.3590    1.2200    6.2930 hc        1 MOL      0.057068
    120 H56        -3.7490    2.2270    5.8860 hc        1 MOL      0.057068
    121 N11        -4.7490    2.0320    0.4680 n         1 MOL     -0.564269
    122 C40        -5.5850    2.1970   -0.7360 c3        1 MOL      0.022614
    123 C41        -5.7210    0.8640   -1.5410 c         1 MOL      0.540438
    124 O16        -5.3820   -0.2310   -1.1190 o         1 MOL     -0.462032
    125 C42        -6.9030    2.8620   -0.4090 c3        1 MOL      0.040118
    126 O17        -7.4980    2.1900    0.5900 oh        1 MOL     -0.562764
    127 H57        -4.7830    1.1330    0.9270 hn        1 MOL      0.335247
    128 H58        -5.1580    2.9260   -1.4160 h1        1 MOL      0.040659
    129 H59        -7.5370    2.8360   -1.2930 h1        1 MOL      0.053192
    130 H60        -6.6960    3.8010    0.0980 h1        1 MOL      0.053192
    131 H61        -8.1530    2.7580    0.9810 ho        1 MOL      0.413295
    132 N12        -6.2030    0.9810   -2.7620 n         1 MOL     -0.397842
    133 C43        -6.2950   -0.0610   -3.7040 c3        1 MOL      0.034166
    134 C44        -7.3190   -1.1540   -3.3060 c         1 MOL      0.424685
    135 O18        -7.3310   -2.2920   -3.8160 o         1 MOL     -0.442108
    136 C45        -4.9760   -0.5830   -4.2140 c3        1 MOL     -0.333718
    137 H62        -6.4750    1.8840   -3.1210 hn        1 MOL      0.295254
    138 H63        -6.7620    0.4470   -4.5450 h1        1 MOL      0.089013
    139 H64        -4.3900    0.2490   -4.6000 hc        1 MOL      0.120686
    140 H65        -4.4820   -1.0830   -3.3820 hc        1 MOL      0.120686
    141 H66        -5.1500   -1.3740   -4.9310 hc        1 MOL      0.120686
    142 N13        -8.2430   -0.8270   -2.4040 n         1 MOL     -0.510883
    143 C46        -9.1720   -1.7210   -1.7510 c3        1 MOL      0.322419
    144 C47        -8.4670   -2.8660   -0.8960 c         1 MOL      0.326476
    145 O19        -9.0400   -3.9460   -0.7200 o         1 MOL     -0.459281
    146 C48       -10.2490   -2.2550   -2.7510 c3        1 MOL     -0.445847
    147 H67        -8.3380    0.1350   -2.1030 hn        1 MOL      0.294182
    148 H68        -9.5280   -1.0550   -0.9600 h1        1 MOL     -0.021955
    149 H69       -10.9830   -2.8160   -2.1670 hc        1 MOL      0.131501
    150 H70       -10.7310   -1.4490   -3.3050 hc        1 MOL      0.131501
    151 H71        -9.6440   -2.8270   -3.4520 hc        1 MOL      0.131501
    152 N14        -7.2100   -2.6860   -0.4590 n         1 MOL     -0.275071
    153 C49        -6.4140   -3.8030    0.0810 c3        1 MOL     -0.052631
    154 C50        -6.8070   -4.2780    1.5180 c         1 MOL      0.477866
    155 O20        -7.0040   -5.4640    1.6750 o         1 MOL     -0.506463
    156 C51        -4.9540   -3.3550    0.0040 c3        1 MOL      0.289797
    157 C52        -3.9890   -4.4570    0.5480 c3        1 MOL     -0.158979
    158 C53        -2.5510   -4.1770    0.1170 c         1 MOL      0.826084
    159 O21        -1.8290   -3.6810    0.9730 o         1 MOL     -0.796225
    160 O22        -2.1210   -4.2560   -1.0520 o         1 MOL     -0.796225
    161 H72        -6.7830   -1.7650   -0.4000 hn        1 MOL      0.199261
    162 H73        -6.6170   -4.6630   -0.5540 h1        1 MOL      0.147893
    163 H74        -4.8350   -2.4990    0.6550 hc        1 MOL     -0.084109
    164 H75        -4.6040   -3.1570   -1.0160 hc        1 MOL     -0.084109
    165 H76        -4.3390   -5.4250    0.1670 hc        1 MOL     -0.003404
    166 H77        -3.9680   -4.3870    1.6350 hc        1 MOL     -0.003404
    167 N15        -7.0340   -3.3920    2.5410 n         1 MOL     -0.280764
    168 C54        -7.6900   -3.6790    3.8650 c3        1 MOL     -0.333285
    169 H78        -7.3460   -4.6430    4.2380 h1        1 MOL      0.142663
    170 H79        -7.4250   -2.8990    4.5780 h1        1 MOL      0.142663
    171 H80        -8.7710   -3.7030    3.7370 h1        1 MOL      0.142663
    172 H81        -6.8700   -2.4580    2.1940 hn        1 MOL      0.199475
    173 Ca1        -0.3350   -2.4020   -0.8600 Ca        1 MOL      1.792074
    174 O23         1.5030   -2.3390    1.0530 oh        1 MOL     -0.831855
    175 H82         1.6590   -2.5480    1.9700 ho        1 MOL      0.418066
    176 H83         2.3030   -1.8920    0.7700 ho        1 MOL      0.418066
    177 O24        -0.9020   -1.0840   -3.2580 oh        1 MOL     -0.831855
    178 H84        -0.7710   -1.4430   -4.1310 ho        1 MOL      0.418066
    179 H85        -1.0650   -0.1520   -3.4030 ho        1 MOL      0.418066
    180 O25         1.5230   -0.4800   -1.4850 oh        1 MOL     -0.831855
    181 H86         2.2950   -0.2070   -0.9890 ho        1 MOL      0.418066
    182 H87         1.4300    0.1800   -2.1640 ho        1 MOL      0.418066
    183 O26        -0.4170   -0.3310    1.0800 oh        1 MOL     -0.831855
    184 H88        -0.1670   -0.1000    1.9740 ho        1 MOL      0.418066
    185 H89        -0.8470    0.4560    0.7400 ho        1 MOL      0.418066
    186 O27        -2.7110   -1.1820   -0.5500 oh        1 MOL     -0.831855
    187 H90        -2.7560   -0.9680    0.3830 ho        1 MOL      0.418066
    188 H91        -3.5120   -0.8020   -0.9170 ho        1 MOL      0.418066
@<TRIPOS>BOND
     1    1    2 1   
     2    1    4 1   
     3    1    5 1   
     4    1    6 1   
     5    2    3 2   
     6    2    7 1   
     7    7    8 1   
     8    7   15 1   
     9    8    9 1   
    10    8   11 1   
    11    8   16 1   
    12    9   10 2   
    13    9   19 1   
    14   11   12 1   
    15   11   17 1   
    16   11   18 1   
    17   12   13 1   
    18   12   14 1   
    19   19   20 1   
    20   19   28 1   
    21   20   21 1   
    22   20   23 1   
    23   20   29 1   
    24   21   22 2   
    25   21   41 1   
    26   23   24 1   
    27   23   30 1   
    28   23   31 1   
    29   24   25 1   
    30   24   32 1   
    31   24   33 1   
    32   25   26 1   
    33   25   34 1   
    34   25   35 1   
    35   26   27 1   
    36   26   36 1   
    37   26   37 1   
    38   27   38 1   
    39   27   39 1   
    40   27   40 1   
    41   41   42 1   
    42   41   49 1   
    43   42   43 1   
    44   42   45 1   
    45   42   50 1   
    46   43   44 2   
    47   43   53 1   
    48   45   46 1   
    49   45   51 1   
    50   45   52 1   
    51   46   47 1   
    52   46   48 1   
    53   53   54 1   
    54   53   57 1   
    55   54   55 1   
    56   54   58 1   
    57   54   59 1   
    58   55   56 2   
    59   55   60 1   
    60   60   61 1   
    61   60   68 1   
    62   61   62 1   
    63   61   64 1   
    64   61   69 1   
    65   62   63 2   
    66   62   74 1   
    67   64   65 1   
    68   64   70 1   
    69   64   71 1   
    70   65   66 1   
    71   65   67 2   
    72   66   72 1   
    73   66   73 1   
    74   74   75 1   
    75   74   78 1   
    76   75   76 1   
    77   75   79 1   
    78   75   80 1   
    79   76   77 2   
    80   76   81 1   
    81   81   82 1   
    82   81   93 1   
    83   82   83 1   
    84   82   85 1   
    85   82   94 1   
    86   83   84 2   
    87   83  102 1   
    88   85   86 1   
    89   85   95 1   
    90   85   96 1   
    91   86   87 ar  
    92   86   88 ar  
    93   87   89 ar  
    94   87   97 1   
    95   88   90 ar  
    96   88   98 1   
    97   89   91 ar  
    98   89   99 1   
    99   90   91 ar  
   100   90  100 1   
   101   91   92 1   
   102   92  101 1   
   103  102  103 1   
   104  102  110 1   
   105  103  104 1   
   106  103  106 1   
   107  103  111 1   
   108  104  105 2   
   109  104  121 1   
   110  106  107 1   
   111  106  108 1   
   112  106  112 1   
   113  107  109 1   
   114  107  113 1   
   115  107  114 1   
   116  108  115 1   
   117  108  116 1   
   118  108  117 1   
   119  109  118 1   
   120  109  119 1   
   121  109  120 1   
   122  121  122 1   
   123  121  127 1   
   124  122  123 1   
   125  122  125 1   
   126  122  128 1   
   127  123  124 2   
   128  123  132 1   
   129  125  126 1   
   130  125  129 1   
   131  125  130 1   
   132  126  131 1   
   133  132  133 1   
   134  132  137 1   
   135  133  134 1   
   136  133  136 1   
   137  133  138 1   
   138  134  135 2   
   139  134  142 1   
   140  136  139 1   
   141  136  140 1   
   142  136  141 1   
   143  142  143 1   
   144  142  147 1   
   145  143  144 1   
   146  143  146 1   
   147  143  148 1   
   148  144  145 2   
   149  144  152 1   
   150  146  149 1   
   151  146  150 1   
   152  146  151 1   
   153  152  153 1   
   154  152  161 1   
   155  153  154 1   
   156  153  156 1   
   157  153  162 1   
   158  154  155 2   
   159  154  167 1   
   160  156  157 1   
   161  156  163 1   
   162  156  164 1   
   163  157  158 1   
   164  157  165 1   
   165  157  166 1   
   166  158  159 1   
   167  158  160 1   
   168  167  168 1   
   169  167  172 1   
   170  168  169 1   
   171  168  170 1   
   172  168  171 1   
   173  174  175 1   
   174  174  176 1   
   175  177  178 1   
   176  177  179 1   
   177  180  181 1   
   178  180  182 1   
   179  183  184 1   
   180  183  185 1   
   181  186  187 1   
   182  186  188 1   
@<TRIPOS>SUBSTRUCTURE
     1 MOL         1 TEMP              0 ****  ****    0 ROOT
