@<TRIPOS>MOLECULE
MOL
  181   177     1     0     0
SMALL
resp


@<TRIPOS>ATOM
      1 C1          0.4380    6.4520   -2.7610 c3        1 MOL     -0.421912
      2 C2          1.8650    6.7540   -2.3150 c         1 MOL      0.745646
      3 O1          2.0910    7.7790   -1.7140 o         1 MOL     -0.586947
      4 H1          0.4580    5.7380   -3.5840 hc        1 MOL      0.101660
      5 H2         -0.1220    6.0280   -1.9280 hc        1 MOL      0.101660
      6 H3         -0.0410    7.3730   -3.0920 hc        1 MOL      0.101660
      7 N1          2.8180    5.9110   -2.6710 n         1 MOL     -0.618284
      8 C3          4.0710    5.8060   -1.9070 c3        1 MOL      0.242994
      9 C4          3.9970    4.8210   -0.6850 c         1 MOL      0.536044
     10 O2          3.4040    3.7580   -0.7040 o         1 MOL     -0.580801
     11 C5          5.2070    5.5250   -2.9750 c3        1 MOL     -0.190532
     12 C6          6.6200    5.5190   -2.3940 c         1 MOL      0.729904
     13 O3          7.2950    4.4710   -2.6100 o         1 MOL     -0.742100
     14 O4          7.0270    6.4560   -1.7280 o         1 MOL     -0.742100
     15 H4          2.5000    5.1080   -3.1960 hn        1 MOL      0.301869
     16 H5          4.2390    6.7680   -1.4230 h1        1 MOL      0.011273
     17 H6          5.2250    6.3100   -3.7350 hc        1 MOL      0.013448
     18 H7          4.9290    4.6310   -3.5340 hc        1 MOL      0.013448
     19 N2          4.6330    5.1440    0.4290 n         1 MOL     -0.462527
     20 C7          4.5770    4.4180    1.6970 c3        1 MOL      0.160644
     21 C8          3.1330    4.1180    2.2300 c         1 MOL      0.549341
     22 O5          2.1570    4.8080    1.9820 o         1 MOL     -0.543144
     23 C9          5.3860    5.1750    2.7160 c3        1 MOL     -0.455167
     24 H8          5.1330    6.0250    0.4330 hn        1 MOL      0.305546
     25 H9          5.0810    3.4640    1.5010 h1        1 MOL      0.087763
     26 H10         5.3940    4.5550    3.6080 hc        1 MOL      0.122946
     27 H11         6.4300    5.1910    2.3930 hc        1 MOL      0.122946
     28 H12         4.9850    6.1840    2.7220 hc        1 MOL      0.122946
     29 N3          2.8970    3.0120    2.9440 n         1 MOL     -0.425281
     30 C10         3.7810    1.9860    3.5440 c3        1 MOL      0.024350
     31 C11         4.1670    0.9710    2.5070 c         1 MOL      0.374766
     32 O6          3.4260    0.5930    1.5610 o         1 MOL     -0.471038
     33 C12         2.9650    1.3320    4.7100 c3        1 MOL     -0.232602
     34 C13         1.5420    1.0100    4.4150 c         1 MOL      0.722557
     35 O7          1.2860    0.5040    3.3220 o         1 MOL     -0.665851
     36 O8          0.7080    0.9740    5.3350 o         1 MOL     -0.665851
     37 H13         1.9170    2.8390    3.1230 hn        1 MOL      0.290708
     38 H14         4.6500    2.3830    4.0790 h1        1 MOL      0.096183
     39 H15         3.0300    1.9380    5.6130 hc        1 MOL      0.043069
     40 H16         3.5460    0.4790    5.0690 hc        1 MOL      0.043069
     41 N4          5.3820    0.4050    2.6300 n         1 MOL     -0.375586
     42 C14         5.9000   -0.5560    1.7200 c3        1 MOL     -0.081164
     43 C15         7.4060   -0.7460    1.9750 c         1 MOL      0.623480
     44 O9          8.0230   -0.0430    2.7380 o         1 MOL     -0.535450
     45 H17         5.8630    0.6390    3.4770 hn        1 MOL      0.257359
     46 H18         5.7430   -0.2640    0.6810 h1        1 MOL      0.142421
     47 H19         5.4980   -1.5390    1.9640 h1        1 MOL      0.142421
     48 N5          7.9630   -1.8840    1.5200 n         1 MOL     -0.626944
     49 C16         7.3410   -2.9970    0.6940 c3        1 MOL      0.338062
     50 C17         6.9540   -2.5910   -0.7470 c         1 MOL      0.370881
     51 O10         7.5750   -1.6740   -1.2920 o         1 MOL     -0.488951
     52 C18         8.3510   -4.1940    0.7090 c3        1 MOL     -0.389483
     53 C19         7.6790   -5.3510   -0.0710 c         1 MOL      0.694306
     54 N6          8.4300   -5.8710   -0.9820 n         1 MOL     -0.774264
     55 O11         6.5940   -5.8980    0.2230 o         1 MOL     -0.578032
     56 H20         8.9710   -1.9900    1.5730 hn        1 MOL      0.331141
     57 H21         6.3650   -3.1930    1.1270 h1        1 MOL     -0.058772
     58 H22         8.4900   -4.4990    1.7490 hc        1 MOL      0.117958
     59 H23         9.2640   -3.8950    0.2040 hc        1 MOL      0.117958
     60 H24         9.3170   -5.4360   -1.1860 hn        1 MOL      0.376513
     61 H25         8.1060   -6.7490   -1.3730 hn        1 MOL      0.376513
     62 N7          5.9060   -3.2310   -1.2380 n         1 MOL     -0.250482
     63 C20         5.1560   -2.7230   -2.3250 c3        1 MOL     -0.096075
     64 C21         3.9680   -3.5190   -2.6530 c         1 MOL      0.514604
     65 O12         4.0810   -4.3260   -3.5890 o         1 MOL     -0.552859
     66 H26         5.5640   -4.0220   -0.7140 hn        1 MOL      0.202978
     67 H27         5.7390   -2.6980   -3.2530 h1        1 MOL      0.085493
     68 H28         4.8940   -1.6940   -2.0960 h1        1 MOL      0.085493
     69 N8          2.8490   -3.4160   -1.9070 n         1 MOL     -0.220447
     70 C22         1.6060   -4.2530   -1.9810 c3        1 MOL     -0.102141
     71 C23         0.3470   -3.4550   -1.6890 c         1 MOL      0.580886
     72 O13         0.3940   -2.3920   -1.0640 o         1 MOL     -0.488336
     73 C24         1.6770   -5.4650   -1.0440 c3        1 MOL      0.385853
     74 C25         2.9970   -6.2860   -1.0410 c3        1 MOL     -0.413310
     75 O14         1.5040   -4.9480    0.2620 oh        1 MOL     -0.630654
     76 H29         2.8930   -2.7090   -1.1880 hn        1 MOL      0.158226
     77 H30         1.5970   -4.7160   -2.9680 h1        1 MOL      0.064755
     78 H31         0.9120   -6.2130   -1.2420 h1        1 MOL      0.001478
     79 H32         1.3840   -5.6090    0.9420 ho        1 MOL      0.416971
     80 H33         2.9280   -7.1020   -0.3290 hc        1 MOL      0.111669
     81 H34         3.1100   -6.7470   -2.0220 hc        1 MOL      0.111669
     82 H35         3.8150   -5.6260   -0.7470 hc        1 MOL      0.111669
     83 N9         -0.7860   -4.0490   -2.1600 n         1 MOL     -0.516859
     84 C26        -2.0940   -3.3720   -1.8960 c3        1 MOL     -0.147711
     85 C27        -2.5240   -3.8440   -0.5090 c         1 MOL      0.477081
     86 O15        -2.5300   -5.0510   -0.2300 o         1 MOL     -0.559757
     87 C28        -3.1620   -3.7500   -2.8830 c3        1 MOL      0.262743
     88 C29        -4.5390   -3.2140   -2.5280 c3        1 MOL      0.086442
     89 C30        -2.8830   -3.4380   -4.3850 c3        1 MOL     -0.178197
     90 C31        -5.7450   -3.8380   -3.3320 c3        1 MOL     -0.237731
     91 H36        -0.6900   -4.9780   -2.5450 hn        1 MOL      0.319141
     92 H37        -1.9470   -2.2980   -2.0090 h1        1 MOL      0.228032
     93 H38        -3.1300   -4.8320   -2.8230 hc        1 MOL     -0.036778
     94 H39        -4.6080   -2.1200   -2.6060 hc        1 MOL     -0.026746
     95 H40        -4.7240   -3.3510   -1.4670 hc        1 MOL     -0.026746
     96 H41        -1.8590   -3.6980   -4.6480 hc        1 MOL      0.027908
     97 H42        -3.4900   -4.0320   -5.0640 hc        1 MOL      0.027908
     98 H43        -3.0600   -2.3710   -4.5630 hc        1 MOL      0.027908
     99 H44        -6.6230   -3.3080   -2.9540 hc        1 MOL      0.048925
    100 H45        -5.6570   -3.4900   -4.3590 hc        1 MOL      0.048925
    101 H46        -5.7840   -4.9230   -3.2710 hc        1 MOL      0.048925
    102 N10        -2.9070   -2.9280    0.3670 n         1 MOL     -0.202050
    103 C32        -3.4680   -3.2830    1.6680 c3        1 MOL      0.120574
    104 C33        -4.6950   -2.4200    2.0210 c         1 MOL      0.411250
    105 O16        -5.2290   -2.4450    3.1060 o         1 MOL     -0.517358
    106 C34        -2.3180   -3.2040    2.7040 c3        1 MOL     -0.209666
    107 C35        -1.2510   -2.1210    2.4450 c         1 MOL      0.941975
    108 O17        -1.5380   -0.9370    2.4450 o         1 MOL     -0.806025
    109 O18        -0.0890   -2.4990    2.2320 o         1 MOL     -0.806025
    110 H47        -2.8910   -1.9380    0.1560 hn        1 MOL      0.029942
    111 H48        -3.8230   -4.3190    1.6600 h1        1 MOL      0.074442
    112 H49        -1.9010   -4.2010    2.7790 hc        1 MOL      0.036343
    113 H50        -2.6560   -3.0080    3.7210 hc        1 MOL      0.036343
    114 N11        -5.1990   -1.5250    1.0990 n         1 MOL     -0.350672
    115 C36        -6.2230   -0.5630    1.3950 c3        1 MOL      0.134191
    116 C37        -6.1080    0.7890    0.6180 c         1 MOL      0.370952
    117 O19        -6.7760    0.9610   -0.4230 o         1 MOL     -0.518689
    118 C38        -7.5630   -1.2520    1.1080 c3        1 MOL     -0.200501
    119 C39        -8.8430   -0.7160    1.8590 ca        1 MOL      0.044713
    120 C40        -9.8800   -0.0240    1.2060 ca        1 MOL     -0.097641
    121 C41        -8.9070   -0.9320    3.2090 ca        1 MOL     -0.097641
    122 C42       -10.9850    0.4160    1.9600 ca        1 MOL     -0.189787
    123 C43        -9.9980   -0.5090    3.9820 ca        1 MOL     -0.189787
    124 C44       -11.0380    0.1660    3.3460 ca        1 MOL     -0.055997
    125 H51        -4.6590   -1.3440    0.2600 hn        1 MOL      0.197570
    126 H52        -6.3310   -0.3790    2.4700 h1        1 MOL      0.078347
    127 H53        -7.4630   -2.3120    1.3560 hc        1 MOL      0.081209
    128 H54        -7.8710   -1.3900    0.0720 hc        1 MOL      0.081209
    129 H55        -9.8280    0.1390    0.1370 ha        1 MOL      0.112747
    130 H56        -8.0390   -1.3800    3.6620 ha        1 MOL      0.112747
    131 H57       -11.7310    1.0040    1.4470 ha        1 MOL      0.118419
    132 H58       -10.0030   -0.5490    5.0560 ha        1 MOL      0.118419
    133 H59       -11.9330    0.4440    3.8820 ha        1 MOL      0.076371
    134 N12        -5.2590    1.7430    1.1260 n         1 MOL     -0.183400
    135 C45        -5.0670    3.1360    0.5520 c3        1 MOL      0.101287
    136 C46        -4.8820    3.1830   -1.0030 c         1 MOL      0.163369
    137 O20        -5.2000    4.2380   -1.6330 o         1 MOL     -0.508944
    138 C47        -3.9530    3.7920    1.3490 c3        1 MOL      0.042856
    139 C48        -4.0040    3.1450    2.7000 c3        1 MOL     -0.175375
    140 C49        -4.5180    1.6920    2.3990 c3        1 MOL     -0.163225
    141 H60        -6.0520    3.5820    0.6950 h1        1 MOL      0.072677
    142 H61        -2.9970    3.7360    0.8120 hc        1 MOL      0.037237
    143 H62        -4.2880    4.8280    1.4190 hc        1 MOL      0.037237
    144 H63        -3.0280    3.1910    3.1690 hc        1 MOL      0.069828
    145 H64        -4.8790    3.4720    3.2600 hc        1 MOL      0.069828
    146 H65        -3.6120    1.0920    2.2960 h1        1 MOL      0.144040
    147 H66        -5.0150    1.2160    3.2380 h1        1 MOL      0.144040
    148 N13        -4.4570    2.1130   -1.6480 n         1 MOL      0.111777
    149 C50        -4.2980    2.1530   -3.1200 c3        1 MOL     -0.265235
    150 C51        -5.6200    2.2030   -3.8590 c         1 MOL      0.587393
    151 O21        -5.8190    2.9630   -4.7890 o         1 MOL     -0.552778
    152 C52        -3.4890    0.8980   -3.5490 c3        1 MOL     -0.043909
    153 C53        -2.1460    0.8210   -2.7690 c3        1 MOL      0.200124
    154 C54        -2.2830    0.2310   -1.3880 c         1 MOL      0.069229
    155 O22        -1.2640    0.2750   -0.6890 o         1 MOL     -0.400268
    156 O23        -3.3380   -0.3080   -0.9960 o         1 MOL     -0.400268
    157 H67        -4.2910    1.2750   -1.1170 hn        1 MOL      0.138090
    158 H68        -3.6710    3.0030   -3.3550 h1        1 MOL      0.120608
    159 H69        -3.3670    0.9760   -4.6230 hc        1 MOL      0.005842
    160 H70        -4.0440    0.0070   -3.2610 hc        1 MOL      0.005842
    161 H71        -1.4420    1.6460   -2.7980 hc        1 MOL     -0.029934
    162 H72        -1.5400    0.1300   -3.3510 hc        1 MOL     -0.029934
    163 N14        -6.4930    1.2640   -3.4220 n         1 MOL     -0.241484
    164 C55        -7.8400    1.1030   -3.9870 c3        1 MOL     -0.180914
    165 H73        -7.8170    0.3460   -4.7710 h1        1 MOL      0.074203
    166 H74        -8.5290    0.7910   -3.2020 h1        1 MOL      0.074203
    167 H75        -8.1730    2.0510   -4.4090 h1        1 MOL      0.074203
    168 H76        -6.2960    0.6180   -2.6770 hn        1 MOL      0.266711
    169 Ca1         0.8790   -0.4700    0.9040 Ca        1 MOL      1.639783
    170 O24         2.6650   -2.4270    1.1360 oh        1 MOL     -0.845600
    171 H77         2.1840   -3.2230    0.9210 ho        1 MOL      0.409777
    172 H78         3.2640   -2.6870    1.8420 ho        1 MOL      0.409777
    173 O25        -1.1050    1.4560    1.5440 oh        1 MOL     -0.845600
    174 H79        -1.4620    1.3220    0.6580 ho        1 MOL      0.409777
    175 H80        -1.4810    0.7530    2.0650 ho        1 MOL      0.409777
    176 O26         1.2770    1.9290   -0.2090 oh        1 MOL     -0.845600
    177 H81         0.6850    2.4700   -0.7320 ho        1 MOL      0.409777
    178 H82         1.9780    2.5190    0.0460 ho        1 MOL      0.409777
    179 O27         2.4630   -0.3650   -1.3120 oh        1 MOL     -0.845600
    180 H83         1.9650    0.2910   -1.7940 ho        1 MOL      0.409777
    181 H84         3.2860    0.0700   -1.0950 ho        1 MOL      0.409777
@<TRIPOS>BOND
     1    1    2 1   
     2    1    4 1   
     3    1    5 1   
     4    1    6 1   
     5    2    3 2   
     6    2    7 1   
     7    7    8 1   
     8    7   15 1   
     9    8    9 1   
    10    8   11 1   
    11    8   16 1   
    12    9   10 2   
    13    9   19 1   
    14   11   12 1   
    15   11   17 1   
    16   11   18 1   
    17   12   13 1   
    18   12   14 1   
    19   19   20 1   
    20   19   24 1   
    21   20   21 1   
    22   20   23 1   
    23   20   25 1   
    24   21   22 2   
    25   21   29 1   
    26   23   26 1   
    27   23   27 1   
    28   23   28 1   
    29   29   30 1   
    30   29   37 1   
    31   30   31 1   
    32   30   33 1   
    33   30   38 1   
    34   31   32 2   
    35   31   41 1   
    36   33   34 1   
    37   33   39 1   
    38   33   40 1   
    39   34   35 1   
    40   34   36 1   
    41   41   42 1   
    42   41   45 1   
    43   42   43 1   
    44   42   46 1   
    45   42   47 1   
    46   43   44 2   
    47   43   48 1   
    48   48   49 1   
    49   48   56 1   
    50   49   50 1   
    51   49   52 1   
    52   49   57 1   
    53   50   51 2   
    54   50   62 1   
    55   52   53 1   
    56   52   58 1   
    57   52   59 1   
    58   53   54 1   
    59   53   55 2   
    60   54   60 1   
    61   54   61 1   
    62   62   63 1   
    63   62   66 1   
    64   63   64 1   
    65   63   67 1   
    66   63   68 1   
    67   64   65 2   
    68   64   69 1   
    69   69   70 1   
    70   69   76 1   
    71   70   71 1   
    72   70   73 1   
    73   70   77 1   
    74   71   72 2   
    75   71   83 1   
    76   73   74 1   
    77   73   75 1   
    78   73   78 1   
    79   74   80 1   
    80   74   81 1   
    81   74   82 1   
    82   75   79 1   
    83   83   84 1   
    84   83   91 1   
    85   84   85 1   
    86   84   87 1   
    87   84   92 1   
    88   85   86 2   
    89   85  102 1   
    90   87   88 1   
    91   87   89 1   
    92   87   93 1   
    93   88   90 1   
    94   88   94 1   
    95   88   95 1   
    96   89   96 1   
    97   89   97 1   
    98   89   98 1   
    99   90   99 1   
   100   90  100 1   
   101   90  101 1   
   102  102  103 1   
   103  102  110 1   
   104  103  104 1   
   105  103  106 1   
   106  103  111 1   
   107  104  105 2   
   108  104  114 1   
   109  106  107 1   
   110  106  112 1   
   111  106  113 1   
   112  107  108 1   
   113  107  109 1   
   114  114  115 1   
   115  114  125 1   
   116  115  116 1   
   117  115  118 1   
   118  115  126 1   
   119  116  117 2   
   120  116  134 1   
   121  118  119 1   
   122  118  127 1   
   123  118  128 1   
   124  119  120 ar  
   125  119  121 ar  
   126  120  122 ar  
   127  120  129 1   
   128  121  123 ar  
   129  121  130 1   
   130  122  124 ar  
   131  122  131 1   
   132  123  124 ar  
   133  123  132 1   
   134  124  133 1   
   135  134  135 1   
   136  134  140 1   
   137  135  136 1   
   138  135  138 1   
   139  135  141 1   
   140  136  137 2   
   141  136  148 1   
   142  138  139 1   
   143  138  142 1   
   144  138  143 1   
   145  139  140 1   
   146  139  144 1   
   147  139  145 1   
   148  140  146 1   
   149  140  147 1   
   150  148  149 1   
   151  148  157 1   
   152  149  150 1   
   153  149  152 1   
   154  149  158 1   
   155  150  151 2   
   156  150  163 1   
   157  152  153 1   
   158  152  159 1   
   159  152  160 1   
   160  153  154 1   
   161  153  161 1   
   162  153  162 1   
   163  154  155 1   
   164  154  156 1   
   165  163  164 1   
   166  163  168 1   
   167  164  165 1   
   168  164  166 1   
   169  164  167 1   
   170  170  171 1   
   171  170  172 1   
   172  173  174 1   
   173  173  175 1   
   174  176  177 1   
   175  176  178 1   
   176  179  180 1   
   177  179  181 1   
@<TRIPOS>SUBSTRUCTURE
     1 MOL         1 TEMP              0 ****  ****    0 ROOT
