@<TRIPOS>MOLECULE
MOL
  184   179     1     0     0
SMALL
resp


@<TRIPOS>ATOM
      1 C1          5.1920   -6.0660    4.3580 c3        1 MOL     -0.271308
      2 C2          4.9890   -4.7410    3.6830 c         1 MOL      0.670260
      3 O1          4.3840   -3.8160    4.2170 o         1 MOL     -0.554845
      4 H1          6.2450   -6.1840    4.6160 hc        1 MOL      0.057860
      5 H2          4.5900   -6.1080    5.2660 hc        1 MOL      0.057860
      6 H3          4.8920   -6.8690    3.6840 hc        1 MOL      0.057860
      7 N1          5.3850   -4.5910    2.3990 n         1 MOL     -0.390963
      8 C3          6.2870   -5.4300    1.6360 c3        1 MOL      0.065718
      9 C4          5.8680   -5.3160    0.1110 c         1 MOL      0.394575
     10 O2          4.7960   -4.9120   -0.2490 o         1 MOL     -0.427071
     11 C5          7.7130   -4.8750    1.9580 c3        1 MOL     -0.479825
     12 C6          8.0950   -3.4400    1.4570 c         1 MOL      0.613618
     13 O3          8.5740   -3.2870    0.2780 o         1 MOL     -0.600713
     14 O4          7.9960   -2.4680    2.2320 o         1 MOL     -0.600713
     15 H4          5.1270   -3.7760    1.8640 hn        1 MOL      0.248824
     16 H5          6.2760   -6.4810    1.9180 h1        1 MOL      0.082877
     17 H6          8.3520   -5.6530    1.5430 hc        1 MOL      0.112720
     18 H7          7.7750   -4.8820    3.0460 hc        1 MOL      0.112720
     19 N2          6.7930   -5.6880   -0.8020 n         1 MOL     -0.397120
     20 C7          6.7460   -5.5350   -2.2610 c3        1 MOL      0.391758
     21 C8          6.0220   -4.3240   -2.8700 c         1 MOL      0.512923
     22 O5          5.5380   -4.4170   -4.0090 o         1 MOL     -0.601426
     23 C9          6.3130   -6.8300   -2.8540 c3        1 MOL     -0.437131
     24 H8          7.6600   -5.8840   -0.3240 hn        1 MOL      0.217052
     25 H9          7.7430   -5.2960   -2.6280 h1        1 MOL     -0.008460
     26 H10         6.8450   -7.5470   -2.2430 hc        1 MOL      0.102832
     27 H11         5.2440   -6.9960   -2.6850 hc        1 MOL      0.102832
     28 H12         6.5600   -6.9530   -3.9210 hc        1 MOL      0.102832
     29 N3          6.1120   -3.1620   -2.2910 n         1 MOL     -0.229999
     30 C10         5.2840   -2.0630   -2.5660 c3        1 MOL     -0.116740
     31 C11         6.1710   -0.7720   -2.7500 c         1 MOL      0.662924
     32 O6          7.1980   -0.5010   -2.1400 o         1 MOL     -0.620479
     33 C12         4.4110   -1.9330   -1.3090 c3        1 MOL      0.077020
     34 C13         4.9820   -1.8320    0.1190 c         1 MOL      0.576013
     35 O7          6.2080   -1.6650    0.2450 o         1 MOL     -0.602298
     36 O8          4.2510   -1.9700    1.1450 o         1 MOL     -0.602298
     37 H13         6.5010   -3.2180   -1.3610 hn        1 MOL     -0.058992
     38 H14         4.6520   -2.3290   -3.4060 h1        1 MOL      0.128593
     39 H15         3.5980   -2.6600   -1.3630 hc        1 MOL      0.017529
     40 H16         3.7730   -1.0540   -1.4160 hc        1 MOL      0.017529
     41 N4          5.6970    0.1350   -3.6460 n         1 MOL     -0.616224
     42 C14         6.1960    1.4990   -3.7300 c3        1 MOL      0.179328
     43 C15         5.7940    2.3440   -2.5150 c         1 MOL      0.401338
     44 O9          5.0950    1.8810   -1.5980 o         1 MOL     -0.383495
     45 H17         4.8240   -0.0390   -4.1270 hn        1 MOL      0.327107
     46 H18         5.7470    1.9980   -4.5830 h1        1 MOL      0.038831
     47 H19         7.2620    1.5040   -3.9530 h1        1 MOL      0.038831
     48 N5          6.3460    3.5390   -2.3760 n         1 MOL     -0.584910
     49 C16         6.1530    4.6060   -1.3820 c3        1 MOL      0.422006
     50 C17         4.7560    4.6090   -0.7260 c         1 MOL      0.461471
     51 O10         3.7280    4.4280   -1.4310 o         1 MOL     -0.458220
     52 C18         6.5710    5.9610   -2.0390 c3        1 MOL     -0.568846
     53 C19         6.4980    7.2040   -1.1870 c         1 MOL      0.625178
     54 N6          7.3110    7.2160   -0.0900 n         1 MOL     -0.746931
     55 O11         5.6660    8.0910   -1.4400 o         1 MOL     -0.472505
     56 H20         6.9250    3.8190   -3.1440 hn        1 MOL      0.279557
     57 H21         6.8380    4.4860   -0.5450 h1        1 MOL     -0.147394
     58 H22         5.9340    6.0470   -2.9160 hc        1 MOL      0.170263
     59 H23         7.5730    5.9590   -2.4590 hc        1 MOL      0.170263
     60 H24         7.9390    6.4280   -0.0630 hn        1 MOL      0.346977
     61 H25         7.4650    8.0340    0.4680 hn        1 MOL      0.346977
     62 N7          4.5570    4.9130    0.5770 n         1 MOL     -0.339625
     63 C20         3.3490    4.7880    1.2560 c3        1 MOL      0.015708
     64 C21         2.2590    5.6540    0.6270 c         1 MOL      0.650010
     65 O12         2.5460    6.7660    0.0840 o         1 MOL     -0.559557
     66 H26         5.3730    5.2130    1.0960 hn        1 MOL      0.249133
     67 H27         3.3850    5.1180    2.2950 h1        1 MOL      0.029509
     68 H28         3.1110    3.7270    1.2100 h1        1 MOL      0.029509
     69 N8          1.0070    5.2930    0.8210 n         1 MOL     -0.571054
     70 C22         0.4500    4.3220    1.7250 c3        1 MOL      0.106407
     71 C23        -0.5990    3.3900    1.0430 c         1 MOL      0.578619
     72 O13        -1.1620    3.8210    0.0710 o         1 MOL     -0.529804
     73 C24        -0.2140    5.0090    2.9550 c3        1 MOL      0.388091
     74 C25         0.7650    5.7100    3.8620 c3        1 MOL     -0.388785
     75 O14        -1.1500    5.9240    2.4800 oh        1 MOL     -0.609766
     76 H29         0.2770    5.8570    0.4080 hn        1 MOL      0.348571
     77 H30         1.2490    3.7150    2.1410 h1        1 MOL      0.022242
     78 H31        -0.8260    4.2600    3.4600 h1        1 MOL     -0.021304
     79 H32        -1.9310    5.7870    3.0310 ho        1 MOL      0.412667
     80 H33         1.5500    4.9950    4.1260 hc        1 MOL      0.088691
     81 H34         1.2200    6.5860    3.3970 hc        1 MOL      0.088691
     82 H35         0.3400    6.1060    4.7900 hc        1 MOL      0.088691
     83 N9         -0.8950    2.2920    1.5850 n         1 MOL     -0.469135
     84 C26        -2.0550    1.5020    1.2240 c3        1 MOL     -0.069529
     85 C27        -3.2190    2.1560    2.0200 c         1 MOL      0.760158
     86 O15        -3.0790    2.5990    3.1370 o         1 MOL     -0.634710
     87 C28        -1.9110    0.0180    1.6050 c3        1 MOL      0.034395
     88 C29        -1.5660   -0.2640    3.0210 c3        1 MOL      0.002681
     89 C30        -0.9610   -0.7590    0.6990 c3        1 MOL     -0.302442
     90 C31        -1.6440   -1.7550    3.2940 c3        1 MOL     -0.268577
     91 H36        -0.5280    2.1800    2.5200 hn        1 MOL      0.182895
     92 H37        -2.1970    1.5170    0.1450 h1        1 MOL      0.180026
     93 H38        -2.9000   -0.4220    1.4880 hc        1 MOL      0.075450
     94 H39        -2.3060    0.1660    3.6960 hc        1 MOL      0.037394
     95 H40        -0.5370    0.0690    3.2050 hc        1 MOL      0.037394
     96 H41        -1.1890   -1.8200    0.6520 hc        1 MOL      0.092501
     97 H42        -1.0450   -0.3450   -0.3030 hc        1 MOL      0.092501
     98 H43         0.0950   -0.7730    0.9760 hc        1 MOL      0.092501
     99 H44        -2.6550   -1.9770    2.9550 hc        1 MOL      0.069861
    100 H45        -0.8220   -2.3180    2.8580 hc        1 MOL      0.069861
    101 H46        -1.5530   -1.8050    4.3850 hc        1 MOL      0.069861
    102 N10        -4.4690    2.1930    1.5320 n         1 MOL     -0.675111
    103 C32        -4.8940    1.7020    0.1990 c3        1 MOL      0.232669
    104 C33        -6.2830    1.1350    0.2390 c         1 MOL      0.471420
    105 O16        -6.8340    0.8980    1.3650 o         1 MOL     -0.555515
    106 C34        -4.7560    2.8730   -0.8100 c3        1 MOL     -0.122081
    107 C35        -5.4380    4.1750   -0.4200 c         1 MOL      0.704395
    108 O17        -5.1020    5.2730   -0.9620 o         1 MOL     -0.678701
    109 O18        -6.3410    4.1980    0.4160 o         1 MOL     -0.678701
    110 H47        -5.1610    2.7370    2.0160 hn        1 MOL      0.385083
    111 H48        -4.2020    0.9040   -0.0670 h1        1 MOL      0.007472
    112 H49        -5.1510    2.5350   -1.7750 hc        1 MOL     -0.008170
    113 H50        -3.6900    2.9140   -1.0290 hc        1 MOL     -0.008170
    114 N11        -6.9300    0.8260   -0.8800 n         1 MOL     -0.651707
    115 C36        -8.3790    0.4760   -1.0100 c3        1 MOL      0.616516
    116 C37        -8.7880   -0.4870   -2.1730 c         1 MOL      0.098502
    117 O19        -8.2370   -0.3310   -3.2470 o         1 MOL     -0.432420
    118 C38        -9.1330    1.7470   -1.1990 c3        1 MOL     -0.229149
    119 C39       -10.5990    1.6320   -0.8560 ca        1 MOL      0.227063
    120 C40       -11.4930    1.3830   -1.8480 ca        1 MOL     -0.303294
    121 C41       -11.0500    1.7450    0.4860 ca        1 MOL     -0.303294
    122 C42       -12.8020    0.9710   -1.4770 ca        1 MOL     -0.020764
    123 C43       -12.3570    1.4180    0.8630 ca        1 MOL     -0.020764
    124 C44       -13.2150    0.9970   -0.1410 ca        1 MOL     -0.219638
    125 H51        -6.4690    0.8030   -1.7770 hn        1 MOL      0.334341
    126 H52        -8.6970    0.0170   -0.0800 h1        1 MOL     -0.059002
    127 H53        -9.1000    2.0270   -2.2460 hc        1 MOL      0.065727
    128 H54        -8.7680    2.5480   -0.5660 hc        1 MOL      0.065727
    129 H55       -11.1740    1.4180   -2.8900 ha        1 MOL      0.177214
    130 H56       -10.3980    2.1080    1.2520 ha        1 MOL      0.177214
    131 H57       -13.5210    0.7910   -2.2600 ha        1 MOL      0.091993
    132 H58       -12.5960    1.4540    1.9100 ha        1 MOL      0.091993
    133 H59       -14.2140    0.7000    0.1540 ha        1 MOL      0.106591
    134 N12        -9.8570   -1.3700   -1.9140 n         1 MOL      0.053032
    135 C45       -10.3860   -1.7010   -0.6090 c3        1 MOL     -0.087408
    136 C46        -9.5350   -2.3870    0.4120 c         1 MOL      0.604806
    137 O20        -9.6870   -2.1020    1.6090 o         1 MOL     -0.580326
    138 C47       -11.6480   -2.6120   -0.9760 c3        1 MOL     -0.147626
    139 C48       -11.9630   -2.2990   -2.4310 c3        1 MOL      0.054776
    140 C49       -10.6390   -1.9780   -2.9920 c3        1 MOL     -0.041270
    141 H60       -10.8230   -0.7790   -0.2200 h1        1 MOL      0.102564
    142 H61       -11.3820   -3.6680   -0.8420 hc        1 MOL      0.047790
    143 H62       -12.4400   -2.3290   -0.2910 hc        1 MOL      0.047790
    144 H63       -12.3380   -3.1250   -3.0330 hc        1 MOL     -0.012852
    145 H64       -12.6910   -1.4810   -2.4590 hc        1 MOL     -0.012852
    146 H65       -10.0490   -2.8080   -3.3730 h1        1 MOL      0.040292
    147 H66       -10.8050   -1.2880   -3.8220 h1        1 MOL      0.040292
    148 N13        -8.5250   -3.0630   -0.0650 n         1 MOL     -0.515985
    149 C50        -7.3340   -3.3720    0.7300 c3        1 MOL      0.307582
    150 C51        -7.5630   -4.5570    1.6640 c         1 MOL      0.354761
    151 O21        -7.8900   -5.6790    1.2350 o         1 MOL     -0.574989
    152 C52        -6.2290   -3.7050   -0.2690 c3        1 MOL     -0.012489
    153 C53        -5.8320   -2.5970   -1.3040 c3        1 MOL     -0.138410
    154 C54        -4.8100   -3.0010   -2.3730 c         1 MOL      0.740405
    155 O22        -3.7180   -3.4350   -1.9600 o         1 MOL     -0.679714
    156 O23        -5.0440   -2.9600   -3.5590 o         1 MOL     -0.679714
    157 H67        -8.5590   -3.3290   -1.0390 hn        1 MOL      0.304271
    158 H68        -7.0490   -2.4460    1.2450 h1        1 MOL      0.058408
    159 H69        -6.4950   -4.5950   -0.8450 hc        1 MOL      0.004260
    160 H70        -5.3800   -3.9490    0.3640 hc        1 MOL      0.004260
    161 H71        -5.3980   -1.7560   -0.7560 hc        1 MOL     -0.012086
    162 H72        -6.6990   -2.2460   -1.8630 hc        1 MOL     -0.012086
    163 N14        -7.5340   -4.3710    2.9600 n         1 MOL     -0.287301
    164 C55        -7.2870   -3.2030    3.8770 c3        1 MOL     -0.263700
    165 H73        -6.3550   -2.7130    3.5960 h1        1 MOL      0.120689
    166 H74        -8.1100   -2.4930    3.7920 h1        1 MOL      0.120689
    167 H75        -7.2160   -3.5580    4.9050 h1        1 MOL      0.120689
    168 H76        -7.8590   -5.2310    3.3850 hn        1 MOL      0.257972
    169 Ca1         8.4930   -0.5840    0.1380 Ca        1 MOL      1.731578
    170 O24         9.9480    1.4130   -0.7020 oh        1 MOL     -0.826354
    171 H77        10.8540    1.3970   -0.4010 ho        1 MOL      0.384256
    172 H78         9.9170    2.1360   -1.3260 ho        1 MOL      0.384256
    173 O25         6.3760    1.2470    0.8380 oh        1 MOL     -0.826354
    174 H79         5.7050    1.4220    0.1870 ho        1 MOL      0.384256
    175 H80         6.4980    2.0890    1.2870 ho        1 MOL      0.384256
    176 O26        10.7960   -1.3390    1.2970 oh        1 MOL     -0.826354
    177 H81        11.6470   -1.0590    1.6330 ho        1 MOL      0.384256
    178 H82        10.6410   -2.1880    1.7170 ho        1 MOL      0.384256
    179 O27        10.1700   -1.4950   -1.8090 oh        1 MOL     -0.826354
    180 H83        10.2340   -0.9000   -2.5630 ho        1 MOL      0.384256
    181 H84        10.1280   -2.3750   -2.1990 ho        1 MOL      0.384256
    182 O28         8.9730    0.9590    2.3470 oh        1 MOL     -0.826354
    183 H85         9.1360    0.6530    3.2430 ho        1 MOL      0.384256
    184 H86         9.0490    1.9100    2.4090 ho        1 MOL      0.384256
@<TRIPOS>BOND
     1    1    2 1   
     2    1    4 1   
     3    1    5 1   
     4    1    6 1   
     5    2    3 2   
     6    2    7 1   
     7    7    8 1   
     8    7   15 1   
     9    8    9 1   
    10    8   11 1   
    11    8   16 1   
    12    9   10 2   
    13    9   19 1   
    14   11   12 1   
    15   11   17 1   
    16   11   18 1   
    17   12   13 1   
    18   12   14 1   
    19   19   20 1   
    20   19   24 1   
    21   20   21 1   
    22   20   23 1   
    23   20   25 1   
    24   21   22 2   
    25   21   29 1   
    26   23   26 1   
    27   23   27 1   
    28   23   28 1   
    29   29   30 1   
    30   29   37 1   
    31   30   31 1   
    32   30   33 1   
    33   30   38 1   
    34   31   32 2   
    35   31   41 1   
    36   33   34 1   
    37   33   39 1   
    38   33   40 1   
    39   34   35 1   
    40   34   36 1   
    41   41   42 1   
    42   41   45 1   
    43   42   43 1   
    44   42   46 1   
    45   42   47 1   
    46   43   44 2   
    47   43   48 1   
    48   48   49 1   
    49   48   56 1   
    50   49   50 1   
    51   49   52 1   
    52   49   57 1   
    53   50   51 2   
    54   50   62 1   
    55   52   53 1   
    56   52   58 1   
    57   52   59 1   
    58   53   54 1   
    59   53   55 2   
    60   54   60 1   
    61   54   61 1   
    62   62   63 1   
    63   62   66 1   
    64   63   64 1   
    65   63   67 1   
    66   63   68 1   
    67   64   65 2   
    68   64   69 1   
    69   69   70 1   
    70   69   76 1   
    71   70   71 1   
    72   70   73 1   
    73   70   77 1   
    74   71   72 2   
    75   71   83 1   
    76   73   74 1   
    77   73   75 1   
    78   73   78 1   
    79   74   80 1   
    80   74   81 1   
    81   74   82 1   
    82   75   79 1   
    83   83   84 1   
    84   83   91 1   
    85   84   85 1   
    86   84   87 1   
    87   84   92 1   
    88   85   86 2   
    89   85  102 1   
    90   87   88 1   
    91   87   89 1   
    92   87   93 1   
    93   88   90 1   
    94   88   94 1   
    95   88   95 1   
    96   89   96 1   
    97   89   97 1   
    98   89   98 1   
    99   90   99 1   
   100   90  100 1   
   101   90  101 1   
   102  102  103 1   
   103  102  110 1   
   104  103  104 1   
   105  103  106 1   
   106  103  111 1   
   107  104  105 2   
   108  104  114 1   
   109  106  107 1   
   110  106  112 1   
   111  106  113 1   
   112  107  108 1   
   113  107  109 1   
   114  114  115 1   
   115  114  125 1   
   116  115  116 1   
   117  115  118 1   
   118  115  126 1   
   119  116  117 2   
   120  116  134 1   
   121  118  119 1   
   122  118  127 1   
   123  118  128 1   
   124  119  120 ar  
   125  119  121 ar  
   126  120  122 ar  
   127  120  129 1   
   128  121  123 ar  
   129  121  130 1   
   130  122  124 ar  
   131  122  131 1   
   132  123  124 ar  
   133  123  132 1   
   134  124  133 1   
   135  134  135 1   
   136  134  140 1   
   137  135  136 1   
   138  135  138 1   
   139  135  141 1   
   140  136  137 2   
   141  136  148 1   
   142  138  139 1   
   143  138  142 1   
   144  138  143 1   
   145  139  140 1   
   146  139  144 1   
   147  139  145 1   
   148  140  146 1   
   149  140  147 1   
   150  148  149 1   
   151  148  157 1   
   152  149  150 1   
   153  149  152 1   
   154  149  158 1   
   155  150  151 2   
   156  150  163 1   
   157  152  153 1   
   158  152  159 1   
   159  152  160 1   
   160  153  154 1   
   161  153  161 1   
   162  153  162 1   
   163  154  155 1   
   164  154  156 1   
   165  163  164 1   
   166  163  168 1   
   167  164  165 1   
   168  164  166 1   
   169  164  167 1   
   170  170  171 1   
   171  170  172 1   
   172  173  174 1   
   173  173  175 1   
   174  176  177 1   
   175  176  178 1   
   176  179  180 1   
   177  179  181 1   
   178  182  183 1   
   179  182  184 1   
@<TRIPOS>SUBSTRUCTURE
     1 MOL         1 TEMP              0 ****  ****    0 ROOT
