@<TRIPOS>MOLECULE
MOL
  195   189     1     0     0
SMALL
resp


@<TRIPOS>ATOM
      1 C1         -2.0230    7.5410    2.5480 c3        1 MOL     -0.434920
      2 C2         -2.1610    5.9820    2.2080 c         1 MOL      0.612493
      3 O1         -1.8410    5.0920    3.0530 o         1 MOL     -0.545194
      4 H1         -0.9790    7.8410    2.4570 hc        1 MOL      0.119422
      5 H2         -2.6300    8.1210    1.8520 hc        1 MOL      0.119422
      6 H3         -2.3650    7.7220    3.5670 hc        1 MOL      0.119422
      7 N1         -2.6300    5.6340    0.9750 n         1 MOL     -0.440967
      8 C3         -2.8240    4.2230    0.5450 c3        1 MOL      0.008757
      9 C4         -1.5610    3.4820    0.0450 c         1 MOL      0.345649
     10 O2         -1.6350    2.4310   -0.6510 o         1 MOL     -0.517668
     11 C5         -4.0620    4.0280   -0.3730 c3        1 MOL     -0.126429
     12 C6         -4.0550    5.0540   -1.5240 c         1 MOL      0.775167
     13 O3         -4.0060    6.2940   -1.3420 o         1 MOL     -0.738801
     14 O4         -4.0800    4.7530   -2.7340 o         1 MOL     -0.738801
     15 H4         -2.8490    6.3850    0.3360 hn        1 MOL      0.261758
     16 H5         -3.1430    3.6370    1.4070 h1        1 MOL      0.096074
     17 H6         -5.0270    4.1490    0.1220 hc        1 MOL      0.033618
     18 H7         -4.0550    3.0280   -0.7970 hc        1 MOL      0.033618
     19 N2         -0.3770    4.1010    0.1750 n         1 MOL     -0.248400
     20 C7          0.8570    3.6220   -0.2940 c3        1 MOL      0.500063
     21 C8          1.8340    3.4250    0.9120 c         1 MOL      0.259844
     22 O5          1.7910    4.0210    2.0040 o         1 MOL     -0.523156
     23 C9          1.4760    4.6580   -1.2360 c3        1 MOL     -0.049904
     24 C10         0.7920    4.8610   -2.6210 c3        1 MOL     -0.011335
     25 C11        -0.5980    5.5170   -2.5900 c3        1 MOL      0.111738
     26 C12        -0.9880    6.0750   -3.9610 c3        1 MOL      0.043099
     27 N3         -2.3340    6.7860   -3.9290 n4        1 MOL     -0.317564
     28 H8         -0.3120    4.9220    0.7490 hn        1 MOL      0.161280
     29 H9          0.8270    2.6440   -0.7730 h1        1 MOL     -0.022510
     30 H10         2.5200    4.4240   -1.4750 hc        1 MOL     -0.012799
     31 H11         1.5510    5.6170   -0.7230 hc        1 MOL     -0.012799
     32 H12         0.8320    4.0100   -3.3010 hc        1 MOL      0.014370
     33 H13         1.4270    5.5510   -3.1700 hc        1 MOL      0.014370
     34 H14        -0.6350    6.3760   -1.9210 hc        1 MOL     -0.029666
     35 H15        -1.3370    4.7770   -2.2770 hc        1 MOL     -0.029666
     36 H16        -1.0920    5.2690   -4.6770 hx        1 MOL      0.048233
     37 H17        -0.1800    6.7490   -4.2590 hx        1 MOL      0.048233
     38 H18        -2.9700    6.2520   -3.3510 hn        1 MOL      0.297273
     39 H19        -2.2740    7.6480   -3.3910 hn        1 MOL      0.297273
     40 H20        -2.5580    6.9760   -4.8990 hn        1 MOL      0.297273
     41 N4          2.7340    2.4680    0.8290 n         1 MOL     -0.198058
     42 C13         2.9940    1.3550   -0.1650 c3        1 MOL     -0.068745
     43 C14         3.0960    1.6650   -1.6830 c         1 MOL      0.310517
     44 O6          2.1090    1.6290   -2.3750 o         1 MOL     -0.514773
     45 C15         1.9480    0.1820    0.0520 c3        1 MOL     -0.109457
     46 C16         1.6860   -0.3260    1.4690 c         1 MOL      0.728708
     47 O7          0.6040   -0.9130    1.7800 o         1 MOL     -0.788320
     48 O8          2.4260    0.0400    2.3650 o         1 MOL     -0.788320
     49 H21         3.5980    2.7070    1.2890 hn        1 MOL      0.237874
     50 H22         3.9920    1.0020    0.0720 h1        1 MOL      0.086529
     51 H23         2.3170   -0.6200   -0.5840 hc        1 MOL      0.091779
     52 H24         0.9730    0.5090   -0.3350 hc        1 MOL      0.091779
     53 N5          4.2570    1.8870   -2.2520 n         1 MOL     -0.250909
     54 C17         5.5250    2.1960   -1.5030 c3        1 MOL     -0.071192
     55 C18         6.7140    2.0310   -2.4550 c         1 MOL      0.484067
     56 O9          6.5470    1.5630   -3.5800 o         1 MOL     -0.558103
     57 H25         4.1880    1.8510   -3.2600 hn        1 MOL      0.276934
     58 H26         5.6600    1.6400   -0.5770 h1        1 MOL      0.060260
     59 H27         5.4480    3.2550   -1.2470 h1        1 MOL      0.060260
     60 N6          7.9050    2.1210   -1.9470 n         1 MOL     -0.128975
     61 C19         8.1980    2.6770   -0.6680 c3        1 MOL     -0.367555
     62 C20         8.0490    1.6940    0.4710 c         1 MOL      0.549873
     63 O10         8.0080    2.0680    1.6560 o         1 MOL     -0.538436
     64 C21         9.6950    3.1690   -0.7120 c3        1 MOL      0.058004
     65 C22        10.6100    1.9160   -0.8980 c         1 MOL      0.582794
     66 O11        11.5100    1.7290   -0.0370 o         1 MOL     -0.616037
     67 O12        10.5460    1.3260   -1.9890 o         1 MOL     -0.616037
     68 H28         8.5880    1.9860   -2.6790 hn        1 MOL      0.216587
     69 H29         7.6380    3.5840   -0.4280 h1        1 MOL      0.135749
     70 H30         9.9440    3.7260    0.1930 hc        1 MOL      0.007151
     71 H31         9.8260    3.8900   -1.5200 hc        1 MOL      0.007151
     72 N7          7.7540    0.4200    0.1830 n         1 MOL     -0.231489
     73 C23         7.0700   -0.5710    1.1410 c3        1 MOL     -0.297699
     74 C24         6.3090   -1.6240    0.3040 c         1 MOL      0.701225
     75 O13         6.2630   -1.4960   -0.9470 o         1 MOL     -0.485025
     76 H32         7.7010    0.2230   -0.8020 hn        1 MOL      0.162157
     77 H33         6.4010    0.0100    1.7850 h1        1 MOL      0.141540
     78 H34         7.9190   -1.0150    1.6720 h1        1 MOL      0.141540
     79 N8          5.7790   -2.6920    0.8090 n         1 MOL     -0.507665
     80 C25         5.1210   -3.7760    0.0880 c3        1 MOL     -0.199389
     81 C26         3.5820   -3.6010   -0.0450 c         1 MOL      0.612784
     82 O14         2.9150   -2.9860    0.8010 o         1 MOL     -0.489895
     83 C27         5.5030   -5.1450    0.7140 c3        1 MOL      0.455751
     84 C28         5.1030   -5.1930    2.2040 c3        1 MOL     -0.213691
     85 O15         6.9340   -5.4510    0.6240 oh        1 MOL     -0.625454
     86 H35         5.7980   -2.7980    1.8080 hn        1 MOL      0.265776
     87 H36         5.5850   -3.7200   -0.8990 h1        1 MOL      0.108502
     88 H37         4.9970   -5.9800    0.2210 h1        1 MOL     -0.018481
     89 H38         7.2710   -5.1180   -0.2080 ho        1 MOL      0.392389
     90 H39         4.0310   -4.9810    2.2830 hc        1 MOL      0.058976
     91 H40         5.2950   -6.1770    2.6160 hc        1 MOL      0.058976
     92 H41         5.6400   -4.4390    2.7680 hc        1 MOL      0.058976
     93 N9          3.0640   -4.0930   -1.1630 n         1 MOL     -0.478563
     94 C29         1.7100   -3.7920   -1.6770 c3        1 MOL     -0.026899
     95 C30         0.7170   -4.9080   -1.6130 c         1 MOL      0.474166
     96 O16         1.0130   -5.9610   -2.2340 o         1 MOL     -0.527118
     97 C31         1.7690   -3.3180   -3.1720 c3        1 MOL      0.157951
     98 C32         2.8000   -2.1330   -3.3200 c3        1 MOL      0.099793
     99 C33         0.4200   -2.7570   -3.6310 c3        1 MOL     -0.192903
    100 C34         3.0680   -1.6760   -4.7310 c3        1 MOL     -0.326035
    101 H42         3.6740   -4.6440   -1.7390 hn        1 MOL      0.283803
    102 H43         1.2990   -2.9650   -1.0870 h1        1 MOL      0.055158
    103 H44         2.0870   -4.1060   -3.8550 hc        1 MOL      0.005846
    104 H45         3.7230   -2.4000   -2.8050 hc        1 MOL     -0.006621
    105 H46         2.4640   -1.2760   -2.7450 hc        1 MOL     -0.006621
    106 H47         0.1380   -1.9540   -2.9390 hc        1 MOL      0.039190
    107 H48         0.5180   -2.4010   -4.6510 hc        1 MOL      0.039190
    108 H49        -0.3520   -3.5240   -3.5570 hc        1 MOL      0.039190
    109 H50         3.5540   -2.5010   -5.2590 hc        1 MOL      0.088734
    110 H51         2.0730   -1.4060   -5.0970 hc        1 MOL      0.088734
    111 H52         3.6910   -0.7870   -4.7660 hc        1 MOL      0.088734
    112 N10        -0.4650   -4.7010   -1.0170 n         1 MOL     -0.210745
    113 C35        -1.6130   -5.5620   -0.8910 c3        1 MOL     -0.141169
    114 C36        -2.8240   -5.0380   -1.7090 c         1 MOL      0.444108
    115 O17        -3.6070   -5.8560   -2.1810 o         1 MOL     -0.532998
    116 C37        -2.1470   -5.7730    0.5970 c3        1 MOL      0.299540
    117 C38        -2.4920   -4.5530    1.4470 c3        1 MOL     -0.339372
    118 O18        -1.1490   -6.3870    1.3940 oh        1 MOL     -0.580107
    119 H53        -0.5410   -3.8000   -0.5670 hn        1 MOL      0.206964
    120 H54        -1.3910   -6.5740   -1.2180 h1        1 MOL      0.136580
    121 H55        -3.0340   -6.4080    0.5740 h1        1 MOL      0.083560
    122 H56        -0.6230   -5.6130    1.6020 ho        1 MOL      0.333234
    123 H57        -1.7450   -3.7850    1.3180 hc        1 MOL      0.110856
    124 H58        -3.4400   -4.2490    0.9880 hc        1 MOL      0.110856
    125 H59        -2.6170   -4.7690    2.5140 hc        1 MOL      0.110856
    126 N11        -2.9980   -3.7510   -1.8400 n         1 MOL     -0.291620
    127 C39        -4.2540   -2.9920   -2.1900 c3        1 MOL     -0.017693
    128 C40        -5.3300   -3.2150   -1.0520 c         1 MOL      0.354821
    129 O19        -5.4780   -4.3410   -0.4820 o         1 MOL     -0.437477
    130 C41        -4.6610   -3.3900   -3.6170 c3        1 MOL      0.440804
    131 C42        -3.6310   -2.7930   -4.5990 c3        1 MOL     -0.416404
    132 O20        -5.9070   -2.7500   -3.8150 oh        1 MOL     -0.678584
    133 H60        -2.2080   -3.2490   -1.4680 hn        1 MOL      0.199502
    134 H61        -3.9070   -1.9600   -2.2640 h1        1 MOL      0.097674
    135 H62        -4.6820   -4.4790   -3.7240 h1        1 MOL      0.040133
    136 H63        -6.4180   -3.2960   -4.4230 ho        1 MOL      0.383575
    137 H64        -2.6390   -3.1600   -4.3380 hc        1 MOL      0.102569
    138 H65        -3.8300   -3.1810   -5.6040 hc        1 MOL      0.102569
    139 H66        -3.6540   -1.7050   -4.4870 hc        1 MOL      0.102569
    140 N12        -6.1140   -2.1530   -0.7900 n         1 MOL     -0.334027
    141 C43        -7.0720   -2.0500    0.3600 c3        1 MOL      0.123850
    142 C44        -6.4940   -1.1510    1.4310 c         1 MOL      0.462461
    143 O21        -6.8130   -1.3810    2.6060 o         1 MOL     -0.534204
    144 C45        -8.4450   -1.6240   -0.1550 c3        1 MOL     -0.315206
    145 C46        -8.3500   -0.4070   -1.0190 c3        1 MOL      0.068578
    146 C47        -9.7030    0.0840   -1.4350 c3        1 MOL      0.007921
    147 C48        -9.6040    1.1360   -2.5810 c3        1 MOL     -0.041574
    148 N13        -9.3630    0.6080   -3.9420 n4        1 MOL     -0.371548
    149 H67        -5.9690   -1.3340   -1.3660 hn        1 MOL      0.241413
    150 H68        -7.1620   -3.0410    0.8210 h1        1 MOL      0.105907
    151 H69        -9.1740   -1.5620    0.6490 hc        1 MOL      0.104723
    152 H70        -8.8170   -2.4410   -0.7710 hc        1 MOL      0.104723
    153 H71        -7.8060   -0.7380   -1.9120 hc        1 MOL      0.004296
    154 H72        -7.8490    0.3670   -0.4530 hc        1 MOL      0.004296
    155 H73       -10.1770    0.6420   -0.6300 hc        1 MOL      0.041501
    156 H74       -10.3260   -0.7380   -1.7780 hc        1 MOL      0.041501
    157 H75        -8.7570    1.6820   -2.1790 hx        1 MOL      0.104181
    158 H76       -10.5170    1.7200   -2.5110 hx        1 MOL      0.104181
    159 H77        -9.0190    1.3630   -4.5120 hn        1 MOL      0.303241
    160 H78        -8.5740   -0.0220   -3.8790 hn        1 MOL      0.303241
    161 H79       -10.1460    0.1000   -4.3320 hn        1 MOL      0.303241
    162 N14        -5.6010   -0.2080    1.1710 n         1 MOL     -0.345959
    163 C49        -4.9150    0.4940    2.2660 c3        1 MOL      0.055202
    164 C50        -5.7530    1.7100    2.6820 c         1 MOL      0.266117
    165 O22        -5.3590    2.8150    2.4360 o         1 MOL     -0.413667
    166 C51        -3.5420    0.9340    1.8550 c3        1 MOL     -0.182275
    167 C52        -2.6040   -0.2560    1.8260 c3        1 MOL      0.222846
    168 C53        -2.3600   -0.7490    3.2210 c         1 MOL      0.594756
    169 O23        -1.4630   -0.1640    3.8980 o         1 MOL     -0.762973
    170 O24        -2.9550   -1.7280    3.7520 o         1 MOL     -0.762973
    171 H80        -5.2860   -0.0200    0.2190 hn        1 MOL      0.202033
    172 H81        -4.8500   -0.1690    3.1310 h1        1 MOL      0.186600
    173 H82        -3.1530    1.6810    2.5430 hc        1 MOL      0.110749
    174 H83        -3.5910    1.3740    0.8520 hc        1 MOL      0.110749
    175 H84        -1.6990    0.0660    1.3050 hc        1 MOL     -0.074454
    176 H85        -3.0360   -1.0970    1.2730 hc        1 MOL     -0.074454
    177 N15        -6.8740    1.4080    3.3260 n         1 MOL     -0.212426
    178 C54        -7.8160    2.3890    3.8420 c3        1 MOL     -0.039996
    179 H86        -8.7750    1.9050    4.0320 h1        1 MOL      0.050617
    180 H87        -7.4320    2.8100    4.7710 h1        1 MOL      0.050617
    181 H88        -7.9510    3.1850    3.1100 h1        1 MOL      0.050617
    182 H89        -7.0770    0.4400    3.5140 hn        1 MOL      0.224819
    183 Ca1         0.8900   -0.7720    4.5340 Ca        1 MOL      1.741710
    184 O25        -0.6270   -3.1710    3.7000 oh        1 MOL     -0.836781
    185 H90        -0.6340   -3.5380    4.5800 ho        1 MOL      0.415884
    186 H91        -1.5230   -2.8650    3.5620 ho        1 MOL      0.415884
    187 O26         2.8130   -2.4740    3.8380 oh        1 MOL     -0.836781
    188 H92         3.0550   -2.4380    2.9170 ho        1 MOL      0.415884
    189 H93         3.6060   -2.7800    4.2830 ho        1 MOL      0.415884
    190 O27         3.1310   -0.3250    6.1290 oh        1 MOL     -0.836781
    191 H94         3.9070   -0.7270    6.5070 ho        1 MOL      0.415884
    192 H95         3.4450    0.5080    5.7690 ho        1 MOL      0.415884
    193 O28         1.2560    1.8470    4.2220 oh        1 MOL     -0.836781
    194 H96         1.7980    2.1120    3.4790 ho        1 MOL      0.415884
    195 H97         0.6580    2.5840    4.3660 ho        1 MOL      0.415884
@<TRIPOS>BOND
     1    1    2 1   
     2    1    4 1   
     3    1    5 1   
     4    1    6 1   
     5    2    3 2   
     6    2    7 1   
     7    7    8 1   
     8    7   15 1   
     9    8    9 1   
    10    8   11 1   
    11    8   16 1   
    12    9   10 2   
    13    9   19 1   
    14   11   12 1   
    15   11   17 1   
    16   11   18 1   
    17   12   13 1   
    18   12   14 1   
    19   19   20 1   
    20   19   28 1   
    21   20   21 1   
    22   20   23 1   
    23   20   29 1   
    24   21   22 2   
    25   21   41 1   
    26   23   24 1   
    27   23   30 1   
    28   23   31 1   
    29   24   25 1   
    30   24   32 1   
    31   24   33 1   
    32   25   26 1   
    33   25   34 1   
    34   25   35 1   
    35   26   27 1   
    36   26   36 1   
    37   26   37 1   
    38   27   38 1   
    39   27   39 1   
    40   27   40 1   
    41   41   42 1   
    42   41   49 1   
    43   42   43 1   
    44   42   45 1   
    45   42   50 1   
    46   43   44 2   
    47   43   53 1   
    48   45   46 1   
    49   45   51 1   
    50   45   52 1   
    51   46   47 1   
    52   46   48 1   
    53   53   54 1   
    54   53   57 1   
    55   54   55 1   
    56   54   58 1   
    57   54   59 1   
    58   55   56 2   
    59   55   60 1   
    60   60   61 1   
    61   60   68 1   
    62   61   62 1   
    63   61   64 1   
    64   61   69 1   
    65   62   63 2   
    66   62   72 1   
    67   64   65 1   
    68   64   70 1   
    69   64   71 1   
    70   65   66 1   
    71   65   67 1   
    72   72   73 1   
    73   72   76 1   
    74   73   74 1   
    75   73   77 1   
    76   73   78 1   
    77   74   75 2   
    78   74   79 1   
    79   79   80 1   
    80   79   86 1   
    81   80   81 1   
    82   80   83 1   
    83   80   87 1   
    84   81   82 2   
    85   81   93 1   
    86   83   84 1   
    87   83   85 1   
    88   83   88 1   
    89   84   90 1   
    90   84   91 1   
    91   84   92 1   
    92   85   89 1   
    93   93   94 1   
    94   93  101 1   
    95   94   95 1   
    96   94   97 1   
    97   94  102 1   
    98   95   96 2   
    99   95  112 1   
   100   97   98 1   
   101   97   99 1   
   102   97  103 1   
   103   98  100 1   
   104   98  104 1   
   105   98  105 1   
   106   99  106 1   
   107   99  107 1   
   108   99  108 1   
   109  100  109 1   
   110  100  110 1   
   111  100  111 1   
   112  112  113 1   
   113  112  119 1   
   114  113  114 1   
   115  113  116 1   
   116  113  120 1   
   117  114  115 2   
   118  114  126 1   
   119  116  117 1   
   120  116  118 1   
   121  116  121 1   
   122  117  123 1   
   123  117  124 1   
   124  117  125 1   
   125  118  122 1   
   126  126  127 1   
   127  126  133 1   
   128  127  128 1   
   129  127  130 1   
   130  127  134 1   
   131  128  129 2   
   132  128  140 1   
   133  130  131 1   
   134  130  132 1   
   135  130  135 1   
   136  131  137 1   
   137  131  138 1   
   138  131  139 1   
   139  132  136 1   
   140  140  141 1   
   141  140  149 1   
   142  141  142 1   
   143  141  144 1   
   144  141  150 1   
   145  142  143 2   
   146  142  162 1   
   147  144  145 1   
   148  144  151 1   
   149  144  152 1   
   150  145  146 1   
   151  145  153 1   
   152  145  154 1   
   153  146  147 1   
   154  146  155 1   
   155  146  156 1   
   156  147  148 1   
   157  147  157 1   
   158  147  158 1   
   159  148  159 1   
   160  148  160 1   
   161  148  161 1   
   162  162  163 1   
   163  162  171 1   
   164  163  164 1   
   165  163  166 1   
   166  163  172 1   
   167  164  165 2   
   168  164  177 1   
   169  166  167 1   
   170  166  173 1   
   171  166  174 1   
   172  167  168 1   
   173  167  175 1   
   174  167  176 1   
   175  168  169 1   
   176  168  170 1   
   177  177  178 1   
   178  177  182 1   
   179  178  179 1   
   180  178  180 1   
   181  178  181 1   
   182  184  185 1   
   183  184  186 1   
   184  187  188 1   
   185  187  189 1   
   186  190  191 1   
   187  190  192 1   
   188  193  194 1   
   189  193  195 1   
@<TRIPOS>SUBSTRUCTURE
     1 MOL         1 TEMP              0 ****  ****    0 ROOT
