@<TRIPOS>MOLECULE
MOL
  198   191     1     0     0
SMALL
resp


@<TRIPOS>ATOM
      1 C1         -2.7100    1.6890    4.4100 c3        1 MOL     -0.384436
      2 C2         -4.0630    1.0000    4.1500 c         1 MOL      0.617718
      3 O1         -4.2170   -0.2200    4.3610 o         1 MOL     -0.558666
      4 H1         -2.7170    2.6830    3.9640 hc        1 MOL      0.102925
      5 H2         -2.5460    1.7740    5.4850 hc        1 MOL      0.102925
      6 H3         -1.9090    1.0990    3.9660 hc        1 MOL      0.102925
      7 N1         -5.0500    1.8020    3.8110 n         1 MOL     -0.413127
      8 C3         -6.3380    1.1940    3.4890 c3        1 MOL     -0.002668
      9 C4         -6.3110    0.1890    2.2560 c         1 MOL      0.594580
     10 O2         -5.2630   -0.1830    1.7360 o         1 MOL     -0.451547
     11 C5         -7.3020    2.4330    3.2760 c3        1 MOL     -0.199508
     12 C6         -6.9730    3.2050    2.0100 c         1 MOL      0.730445
     13 O3         -7.5850    2.8910    0.9770 o         1 MOL     -0.737870
     14 O4         -6.3820    4.2910    2.1150 o         1 MOL     -0.737870
     15 H4         -4.8570    2.7510    3.5490 hn        1 MOL      0.261496
     16 H5         -6.7620    0.6050    4.3040 h1        1 MOL      0.056629
     17 H6         -7.2580    3.0680    4.1550 hc        1 MOL      0.048113
     18 H7         -8.2950    2.0080    3.1130 hc        1 MOL      0.048113
     19 N2         -7.5050   -0.3450    1.9210 n         1 MOL     -0.495465
     20 C7         -7.6840   -1.4340    0.9780 c3        1 MOL      0.008915
     21 C8         -7.2080   -1.0420   -0.4310 c         1 MOL      0.405600
     22 O5         -7.1680   -1.9320   -1.3260 o         1 MOL     -0.507315
     23 C9         -9.2260   -1.6710    0.9470 c3        1 MOL     -0.167207
     24 C10       -10.0500   -0.5490    0.1940 c3        1 MOL      0.290915
     25 C11       -11.5260   -0.9530    0.1770 c3        1 MOL     -0.510852
     26 C12       -12.3300    0.2210   -0.4210 c3        1 MOL      0.245639
     27 N3        -13.6660   -0.0610   -0.7940 n4        1 MOL     -0.420537
     28 H8         -8.3150   -0.2480    2.5120 hn        1 MOL      0.284635
     29 H9         -7.1580   -2.3530    1.2410 h1        1 MOL      0.128433
     30 H10        -9.5950   -1.6430    1.9660 hc        1 MOL      0.042384
     31 H11        -9.3960   -2.6760    0.5800 hc        1 MOL      0.042384
     32 H12        -9.7110   -0.4090   -0.8410 hc        1 MOL      0.033509
     33 H13        -9.9650    0.3840    0.7460 hc        1 MOL      0.033509
     34 H14       -11.8600   -1.2240    1.1850 hc        1 MOL      0.133441
     35 H15       -11.5740   -1.8150   -0.4870 hc        1 MOL      0.133441
     36 H16       -11.7570    0.5680   -1.2860 hx        1 MOL      0.052744
     37 H17       -12.2130    1.0030    0.3330 hx        1 MOL      0.052744
     38 H18       -13.7190   -0.8370   -1.4380 hn        1 MOL      0.306659
     39 H19       -14.1840   -0.2330    0.0590 hn        1 MOL      0.306659
     40 H20       -14.1610    0.6840   -1.2570 hn        1 MOL      0.306659
     41 N4         -6.7800    0.1530   -0.7320 n         1 MOL     -0.217428
     42 C13        -6.1880    0.6770   -1.9210 c3        1 MOL      0.057220
     43 C14        -5.0350    1.6530   -1.5540 c         1 MOL      0.675374
     44 O6         -5.3140    2.6570   -0.8790 o         1 MOL     -0.719196
     45 C15        -7.2540    1.2760   -2.8670 c3        1 MOL     -0.455143
     46 C16        -8.3520    2.2910   -2.3400 c         1 MOL      0.930165
     47 O7         -9.5720    1.9820   -2.2730 o         1 MOL     -0.807165
     48 O8         -7.9920    3.4900   -2.0370 o         1 MOL     -0.807165
     49 H21        -6.9210    0.8000    0.0310 hn        1 MOL      0.173915
     50 H22        -5.8630   -0.1470   -2.5640 h1        1 MOL      0.158101
     51 H23        -7.8130    0.4170   -3.2460 hc        1 MOL      0.116372
     52 H24        -6.7120    1.7600   -3.6830 hc        1 MOL      0.116372
     53 N5         -3.7390    1.3920   -1.9750 n         1 MOL     -0.525790
     54 C17        -3.2250    0.3730   -2.9520 c3        1 MOL      0.015969
     55 C18        -3.1940   -1.1470   -2.5020 c         1 MOL      0.573724
     56 O9         -3.6310   -1.4310   -1.4140 o         1 MOL     -0.486940
     57 H25        -3.1120    2.1230   -1.6740 hn        1 MOL      0.336297
     58 H26        -2.2560    0.5680   -3.3950 h1        1 MOL      0.048873
     59 H27        -3.9070    0.4050   -3.8020 h1        1 MOL      0.048873
     60 N6         -2.8980   -2.1280   -3.3890 n         1 MOL     -0.573949
     61 C19        -2.6770   -3.5790   -3.2080 c3        1 MOL      0.124190
     62 C20        -1.1260   -4.0680   -2.9600 c         1 MOL      0.577438
     63 O10        -0.2200   -3.3450   -3.3740 o         1 MOL     -0.520507
     64 C21        -3.2090   -4.3790   -4.3640 c3        1 MOL     -0.115971
     65 C22        -4.4780   -3.8260   -4.9980 c         1 MOL      0.766915
     66 O11        -5.5710   -4.0260   -4.4650 o         1 MOL     -0.696626
     67 O12        -4.3370   -3.3830   -6.1450 o         1 MOL     -0.696626
     68 H28        -2.6960   -1.7790   -4.3210 hn        1 MOL      0.276669
     69 H29        -3.2470   -3.7210   -2.2780 h1        1 MOL      0.062383
     70 H30        -3.5080   -5.3700   -4.0270 hc        1 MOL      0.003739
     71 H31        -2.4510   -4.4940   -5.1390 hc        1 MOL      0.003739
     72 N7         -0.9000   -5.2240   -2.3840 n         1 MOL     -0.587099
     73 C23         0.3830   -5.6160   -1.8110 c3        1 MOL      0.153167
     74 C24         0.4280   -5.5630   -0.2900 c         1 MOL      0.441502
     75 O13         1.4820   -5.8240    0.3080 o         1 MOL     -0.567264
     76 H32        -1.7030   -5.7960   -2.1440 hn        1 MOL      0.296798
     77 H33         1.2070   -5.0110   -2.1760 h1        1 MOL      0.052238
     78 H34         0.7250   -6.6410   -2.0130 h1        1 MOL      0.052238
     79 N8         -0.6500   -5.2350    0.3270 n         1 MOL     -0.266539
     80 C25        -0.7280   -4.9320    1.7410 c3        1 MOL     -0.161659
     81 C26        -0.1890   -3.5250    2.1240 c         1 MOL      0.504955
     82 O14        -0.7010   -2.5230    1.6500 o         1 MOL     -0.512488
     83 C27        -2.1880   -5.0660    2.2730 c3        1 MOL      0.477526
     84 C28        -2.6630   -6.4890    2.3730 c3        1 MOL     -0.308382
     85 O15        -2.4300   -4.5310    3.5230 oh        1 MOL     -0.614682
     86 H35        -1.4990   -5.0620   -0.2050 hn        1 MOL      0.210130
     87 H36        -0.1380   -5.6480    2.3000 h1        1 MOL      0.082423
     88 H37        -2.8140   -4.5060    1.5750 h1        1 MOL     -0.021005
     89 H38        -2.7030   -3.6280    3.3410 ho        1 MOL      0.409228
     90 H39        -2.7520   -6.9800    1.4000 hc        1 MOL      0.074220
     91 H40        -2.0130   -7.0480    3.0340 hc        1 MOL      0.074220
     92 H41        -3.6710   -6.4720    2.7970 hc        1 MOL      0.074220
     93 N9          0.9170   -3.5350    2.8280 n         1 MOL     -0.337750
     94 C29         1.5880   -2.3260    3.3450 c3        1 MOL     -0.163389
     95 C30         2.6530   -1.8410    2.3330 c         1 MOL      0.510801
     96 O16         2.6850   -0.6040    2.0470 o         1 MOL     -0.547370
     97 C31         2.3230   -2.5590    4.7510 c3        1 MOL      0.257306
     98 C32         1.3700   -3.2130    5.7410 c3        1 MOL      0.072983
     99 C33         2.8970   -1.2730    5.3430 c3        1 MOL     -0.391187
    100 C34        -0.0230   -2.5580    5.8880 c3        1 MOL     -0.130852
    101 H42         1.2970   -4.4550    2.9810 hn        1 MOL      0.277787
    102 H43         0.8290   -1.5570    3.4580 h1        1 MOL      0.152113
    103 H44         3.1140   -3.2900    4.6030 hc        1 MOL     -0.016335
    104 H45         1.8730   -3.2440    6.7140 hc        1 MOL     -0.037180
    105 H46         1.2320   -4.2660    5.4940 hc        1 MOL     -0.037180
    106 H47         3.5370   -1.6020    6.1600 hc        1 MOL      0.101444
    107 H48         3.4680   -0.6130    4.6890 hc        1 MOL      0.101444
    108 H49         2.1220   -0.5710    5.6230 hc        1 MOL      0.101444
    109 H50         0.0750   -1.5420    6.2750 hc        1 MOL      0.036131
    110 H51        -0.4830   -2.6650    4.9020 hc        1 MOL      0.036131
    111 H52        -0.6540   -3.0900    6.5860 hc        1 MOL      0.036131
    112 N10         3.4310   -2.7090    1.7210 n         1 MOL     -0.482625
    113 C35         4.3100   -2.5220    0.5200 c3        1 MOL      0.037761
    114 C36         5.6590   -3.1790    0.5620 c         1 MOL      0.563228
    115 O17         5.7540   -4.2800    1.2030 o         1 MOL     -0.550584
    116 C37         3.5080   -2.9820   -0.7560 c3        1 MOL      0.529110
    117 C38         2.3140   -2.1010   -1.0850 c3        1 MOL     -0.399375
    118 O18         4.1820   -3.1350   -1.9220 oh        1 MOL     -0.673866
    119 H53         3.2290   -3.6530    2.0270 hn        1 MOL      0.275318
    120 H54         4.5080   -1.4710    0.3600 h1        1 MOL      0.054516
    121 H55         3.1090   -3.9780   -0.5730 h1        1 MOL     -0.034514
    122 H56         3.6210   -2.7050   -2.5700 ho        1 MOL      0.399969
    123 H57         1.6590   -2.6710   -1.7460 hc        1 MOL      0.105568
    124 H58         1.7420   -1.7110   -0.2470 hc        1 MOL      0.105568
    125 H59         2.6010   -1.1620   -1.5660 hc        1 MOL      0.105568
    126 N11         6.5830   -2.6570   -0.2230 n         1 MOL     -0.483330
    127 C39         7.9720   -3.0780   -0.4260 c3        1 MOL      0.139521
    128 C40         8.8840   -1.8360   -0.2170 c         1 MOL      0.557173
    129 O19         9.5960   -1.7710    0.7610 o         1 MOL     -0.556292
    130 C41         8.3250   -3.7850   -1.6610 c3        1 MOL      0.277758
    131 C42         9.7520   -4.2210   -1.7760 c3        1 MOL     -0.350655
    132 O20         8.0080   -3.0410   -2.7690 oh        1 MOL     -0.612875
    133 H60         6.3040   -1.8940   -0.8210 hn        1 MOL      0.262916
    134 H61         8.3390   -3.7350    0.3620 h1        1 MOL      0.056368
    135 H62         7.7420   -4.7030   -1.6670 h1        1 MOL      0.037256
    136 H63         8.0100   -3.7110   -3.4670 ho        1 MOL      0.406024
    137 H64        10.4170   -3.3650   -1.7240 hc        1 MOL      0.086152
    138 H65         9.9020   -5.0020   -1.0220 hc        1 MOL      0.086152
    139 H66         9.8790   -4.6400   -2.7760 hc        1 MOL      0.086152
    140 N12         8.8170   -0.7110   -0.9890 n         1 MOL     -0.463910
    141 C43         9.8600    0.3450   -0.9430 c3        1 MOL      0.071548
    142 C44         9.1180    1.6570   -1.2420 c         1 MOL      0.395006
    143 O21         8.1160    1.7100   -1.9750 o         1 MOL     -0.480230
    144 C45        11.0330    0.1030   -1.9150 c3        1 MOL     -0.308153
    145 C46        12.1160    1.1770   -1.9270 c3        1 MOL      0.094848
    146 C47        13.0370    1.1440   -0.7620 c3        1 MOL     -0.646647
    147 C48        14.0300    2.3230   -0.6690 c3        1 MOL      0.445506
    148 N13        15.1570    2.0300    0.3040 n4        1 MOL     -0.573442
    149 H67         8.3880   -0.8040   -1.8920 hn        1 MOL      0.289053
    150 H68        10.2980    0.4960    0.0410 h1        1 MOL      0.066114
    151 H69        10.6390   -0.0630   -2.9160 hc        1 MOL      0.131504
    152 H70        11.5140   -0.8480   -1.6440 hc        1 MOL      0.131504
    153 H71        11.6270    2.1440   -2.0230 hc        1 MOL      0.043475
    154 H72        12.6450    0.9540   -2.8620 hc        1 MOL      0.043475
    155 H73        13.6160    0.2460   -0.9200 hc        1 MOL      0.193380
    156 H74        12.4660    0.9510    0.1510 hc        1 MOL      0.193380
    157 H75        13.7280    3.3200   -0.3720 hx        1 MOL     -0.002013
    158 H76        14.4770    2.5190   -1.6380 hx        1 MOL     -0.002013
    159 H77        14.8260    1.9000    1.2520 hn        1 MOL      0.362717
    160 H78        15.6920    1.2280   -0.0010 hn        1 MOL      0.362717
    161 H79        15.7370    2.8470    0.3700 hn        1 MOL      0.362717
    162 N14         9.5400    2.6970   -0.5350 n         1 MOL     -0.270324
    163 C49         8.9250    4.0470   -0.5480 c3        1 MOL      0.252315
    164 C50         7.4220    4.2260   -0.1060 c         1 MOL      0.406093
    165 O22         6.6170    4.4950   -0.9270 o         1 MOL     -0.511462
    166 C51         9.7790    5.0910    0.1970 c3        1 MOL      0.121112
    167 C52        10.9320    5.6300   -0.6870 c3        1 MOL     -0.139071
    168 C53        11.7050    6.7460    0.0310 c         1 MOL      0.652527
    169 O23        12.7230    6.4200    0.7040 o         1 MOL     -0.687309
    170 O24        11.2520    7.9140   -0.0790 o         1 MOL     -0.687309
    171 H80        10.1570    2.4680    0.2360 hn        1 MOL      0.211922
    172 H81         8.8840    4.3740   -1.5850 h1        1 MOL      0.003811
    173 H82        10.2350    4.5170    1.0030 hc        1 MOL     -0.029271
    174 H83         9.1720    5.9390    0.5130 hc        1 MOL     -0.029271
    175 H84        10.5290    5.9970   -1.6280 hc        1 MOL     -0.015034
    176 H85        11.5770    4.7620   -0.8070 hc        1 MOL     -0.015034
    177 N15         6.9980    4.0610    1.1680 n         1 MOL     -0.399595
    178 C54         7.7590    3.6930    2.3860 c3        1 MOL      0.038931
    179 H86         7.6980    2.6150    2.5400 h1        1 MOL      0.024911
    180 H87         8.8030    3.9830    2.2650 h1        1 MOL      0.024911
    181 H88         7.3350    4.2070    3.2490 h1        1 MOL      0.024911
    182 H89         6.0040    4.2370    1.2090 hn        1 MOL      0.300118
    183 Ca1        -6.4550    4.9720   -0.3810 Ca        1 MOL      1.767429
    184 O25        -5.0730    5.1880   -2.6630 oh        1 MOL     -0.809718
    185 H90        -4.2030    5.0390   -3.0390 ho        1 MOL      0.404767
    186 H91        -5.5360    5.6950   -3.3360 ho        1 MOL      0.404767
    187 O26        -7.3730    6.9100   -2.2120 oh        1 MOL     -0.809718
    188 H92        -8.1200    6.3430   -2.3940 ho        1 MOL      0.404767
    189 H93        -7.7380    7.7970   -2.1950 ho        1 MOL      0.404767
    190 O27        -6.8980    7.0500    1.1560 oh        1 MOL     -0.809718
    191 H94        -6.2220    7.5890    1.5670 ho        1 MOL      0.404767
    192 H95        -7.6280    7.6500    1.0070 ho        1 MOL      0.404767
    193 O28        -9.1750    5.5340   -0.1950 oh        1 MOL     -0.809718
    194 H96        -9.7610    4.8210   -0.4380 ho        1 MOL      0.404767
    195 H97        -9.7480    6.1830    0.2240 ho        1 MOL      0.404767
    196 O29        -4.3440    6.7630   -0.5070 oh        1 MOL     -0.809718
    197 H98        -4.1350    7.6770   -0.3320 ho        1 MOL      0.404767
    198 H99        -3.6430    6.4610   -1.0890 ho        1 MOL      0.404767
@<TRIPOS>BOND
     1    1    2 1   
     2    1    4 1   
     3    1    5 1   
     4    1    6 1   
     5    2    3 2   
     6    2    7 1   
     7    7    8 1   
     8    7   15 1   
     9    8    9 1   
    10    8   11 1   
    11    8   16 1   
    12    9   10 2   
    13    9   19 1   
    14   11   12 1   
    15   11   17 1   
    16   11   18 1   
    17   12   13 1   
    18   12   14 1   
    19   19   20 1   
    20   19   28 1   
    21   20   21 1   
    22   20   23 1   
    23   20   29 1   
    24   21   22 2   
    25   21   41 1   
    26   23   24 1   
    27   23   30 1   
    28   23   31 1   
    29   24   25 1   
    30   24   32 1   
    31   24   33 1   
    32   25   26 1   
    33   25   34 1   
    34   25   35 1   
    35   26   27 1   
    36   26   36 1   
    37   26   37 1   
    38   27   38 1   
    39   27   39 1   
    40   27   40 1   
    41   41   42 1   
    42   41   49 1   
    43   42   43 1   
    44   42   45 1   
    45   42   50 1   
    46   43   44 2   
    47   43   53 1   
    48   45   46 1   
    49   45   51 1   
    50   45   52 1   
    51   46   47 1   
    52   46   48 1   
    53   53   54 1   
    54   53   57 1   
    55   54   55 1   
    56   54   58 1   
    57   54   59 1   
    58   55   56 2   
    59   55   60 1   
    60   60   61 1   
    61   60   68 1   
    62   61   62 1   
    63   61   64 1   
    64   61   69 1   
    65   62   63 2   
    66   62   72 1   
    67   64   65 1   
    68   64   70 1   
    69   64   71 1   
    70   65   66 1   
    71   65   67 1   
    72   72   73 1   
    73   72   76 1   
    74   73   74 1   
    75   73   77 1   
    76   73   78 1   
    77   74   75 2   
    78   74   79 1   
    79   79   80 1   
    80   79   86 1   
    81   80   81 1   
    82   80   83 1   
    83   80   87 1   
    84   81   82 2   
    85   81   93 1   
    86   83   84 1   
    87   83   85 1   
    88   83   88 1   
    89   84   90 1   
    90   84   91 1   
    91   84   92 1   
    92   85   89 1   
    93   93   94 1   
    94   93  101 1   
    95   94   95 1   
    96   94   97 1   
    97   94  102 1   
    98   95   96 2   
    99   95  112 1   
   100   97   98 1   
   101   97   99 1   
   102   97  103 1   
   103   98  100 1   
   104   98  104 1   
   105   98  105 1   
   106   99  106 1   
   107   99  107 1   
   108   99  108 1   
   109  100  109 1   
   110  100  110 1   
   111  100  111 1   
   112  112  113 1   
   113  112  119 1   
   114  113  114 1   
   115  113  116 1   
   116  113  120 1   
   117  114  115 2   
   118  114  126 1   
   119  116  117 1   
   120  116  118 1   
   121  116  121 1   
   122  117  123 1   
   123  117  124 1   
   124  117  125 1   
   125  118  122 1   
   126  126  127 1   
   127  126  133 1   
   128  127  128 1   
   129  127  130 1   
   130  127  134 1   
   131  128  129 2   
   132  128  140 1   
   133  130  131 1   
   134  130  132 1   
   135  130  135 1   
   136  131  137 1   
   137  131  138 1   
   138  131  139 1   
   139  132  136 1   
   140  140  141 1   
   141  140  149 1   
   142  141  142 1   
   143  141  144 1   
   144  141  150 1   
   145  142  143 2   
   146  142  162 1   
   147  144  145 1   
   148  144  151 1   
   149  144  152 1   
   150  145  146 1   
   151  145  153 1   
   152  145  154 1   
   153  146  147 1   
   154  146  155 1   
   155  146  156 1   
   156  147  148 1   
   157  147  157 1   
   158  147  158 1   
   159  148  159 1   
   160  148  160 1   
   161  148  161 1   
   162  162  163 1   
   163  162  171 1   
   164  163  164 1   
   165  163  166 1   
   166  163  172 1   
   167  164  165 2   
   168  164  177 1   
   169  166  167 1   
   170  166  173 1   
   171  166  174 1   
   172  167  168 1   
   173  167  175 1   
   174  167  176 1   
   175  168  169 1   
   176  168  170 1   
   177  177  178 1   
   178  177  182 1   
   179  178  179 1   
   180  178  180 1   
   181  178  181 1   
   182  184  185 1   
   183  184  186 1   
   184  187  188 1   
   185  187  189 1   
   186  190  191 1   
   187  190  192 1   
   188  193  194 1   
   189  193  195 1   
   190  196  197 1   
   191  196  198 1   
@<TRIPOS>SUBSTRUCTURE
     1 MOL         1 TEMP              0 ****  ****    0 ROOT
