@<TRIPOS>MOLECULE
MOL
  195   189     1     0     0
SMALL
resp


@<TRIPOS>ATOM
      1 C1          3.8130   -7.2860   -2.9960 c3        1 MOL     -0.309610
      2 C2          3.8370   -5.9020   -2.3240 c         1 MOL      0.770614
      3 O1          3.9100   -5.7950   -1.0920 o         1 MOL     -0.627896
      4 H1          2.9110   -7.3800   -3.6000 hc        1 MOL      0.073661
      5 H2          4.6900   -7.3960   -3.6340 hc        1 MOL      0.073661
      6 H3          3.8210   -8.0620   -2.2310 hc        1 MOL      0.073661
      7 N1          3.5720   -4.8100   -3.0220 n         1 MOL     -0.597212
      8 C3          3.3590   -3.4290   -2.5740 c3        1 MOL      0.175820
      9 C4          1.9350   -3.0850   -2.1150 c         1 MOL      0.609720
     10 O2          1.6260   -1.8750   -2.1800 o         1 MOL     -0.586380
     11 C5          3.7980   -2.4290   -3.6820 c3        1 MOL     -0.264697
     12 C6          5.1810   -2.7810   -4.3260 c         1 MOL      0.717016
     13 O3          6.1660   -2.0800   -3.9620 o         1 MOL     -0.669353
     14 O4          5.2260   -3.6340   -5.2220 o         1 MOL     -0.669353
     15 H4          3.5390   -4.9320   -4.0260 hn        1 MOL      0.283161
     16 H5          3.9630   -3.2270   -1.6900 h1        1 MOL      0.071660
     17 H6          3.9560   -1.4130   -3.3140 hc        1 MOL      0.057437
     18 H7          3.0080   -2.4400   -4.4290 hc        1 MOL      0.057437
     19 N2          1.0070   -4.0390   -1.9260 n         1 MOL     -0.585859
     20 C7         -0.4360   -3.7200   -1.7760 c3        1 MOL      0.389462
     21 C8         -0.7880   -3.7430   -0.2700 c         1 MOL      0.552685
     22 O5         -0.3910   -4.7090    0.4400 o         1 MOL     -0.572566
     23 C9         -1.2230   -4.7770   -2.6660 c3        1 MOL     -0.356543
     24 C10        -2.7060   -4.4090   -2.8310 c3        1 MOL      0.394429
     25 C11        -3.5020   -5.5540   -3.4510 c3        1 MOL     -0.318979
     26 C12        -5.0090   -5.3260   -3.2230 c3        1 MOL      0.337130
     27 N3         -5.8470   -6.2070   -4.1300 n4        1 MOL     -0.533514
     28 H8          1.3460   -4.9340   -1.6080 hn        1 MOL      0.282717
     29 H9         -0.5180   -2.6730   -2.0770 h1        1 MOL      0.006812
     30 H10        -1.1530   -5.7130   -2.1190 hc        1 MOL      0.074980
     31 H11        -0.7560   -4.9440   -3.6410 hc        1 MOL      0.074980
     32 H12        -2.9060   -3.4750   -3.3590 hc        1 MOL     -0.068126
     33 H13        -3.0890   -4.2480   -1.8240 hc        1 MOL     -0.068126
     34 H14        -3.2750   -6.5150   -3.0060 hc        1 MOL      0.078149
     35 H15        -3.3410   -5.4820   -4.5220 hc        1 MOL      0.078149
     36 H16        -5.2130   -4.2710   -3.3620 hx        1 MOL      0.031870
     37 H17        -5.3150   -5.5910   -2.2140 hx        1 MOL      0.031870
     38 H18        -6.8260   -5.9820   -4.0200 hn        1 MOL      0.354125
     39 H19        -5.7910   -5.9860   -5.1130 hn        1 MOL      0.354125
     40 H20        -5.7870   -7.2030   -3.9800 hn        1 MOL      0.354125
     41 N4         -1.5920   -2.8270    0.2930 n         1 MOL     -0.524233
     42 C13        -1.9950   -1.4360   -0.0970 c3        1 MOL      0.188836
     43 C14        -2.5720   -1.2370   -1.5430 c         1 MOL      0.422152
     44 O6         -1.9710   -0.7780   -2.4980 o         1 MOL     -0.500692
     45 C15        -0.8410   -0.5260    0.2620 c3        1 MOL     -0.085922
     46 C16        -0.6480   -0.5120    1.7960 c         1 MOL      0.634488
     47 O7         -1.5480   -0.8680    2.5360 o         1 MOL     -0.776913
     48 O8          0.4440   -0.0920    2.2590 o         1 MOL     -0.776913
     49 H21        -1.8430   -3.1150    1.2320 hn        1 MOL      0.271029
     50 H22        -2.7350   -1.1040    0.6350 h1        1 MOL      0.056630
     51 H23        -1.1250    0.4930   -0.0090 hc        1 MOL      0.051621
     52 H24         0.1460   -0.7780   -0.1310 hc        1 MOL      0.051621
     53 N5         -3.8890   -1.4160   -1.7770 n         1 MOL     -0.415103
     54 C17        -4.9560   -1.5010   -0.7450 c3        1 MOL      0.072682
     55 C18        -6.4040   -1.8660   -1.2050 c         1 MOL      0.450180
     56 O9         -6.6380   -2.3610   -2.2710 o         1 MOL     -0.566875
     57 H25        -4.1920   -1.3200   -2.7440 hn        1 MOL      0.294081
     58 H26        -4.9690   -0.6190   -0.1070 h1        1 MOL      0.029430
     59 H27        -4.6560   -2.3010   -0.0690 h1        1 MOL      0.029430
     60 N6         -7.4260   -1.7110   -0.3350 n         1 MOL     -0.423770
     61 C19        -7.3380   -1.5550    1.1470 c3        1 MOL      0.191803
     62 C20        -7.9160   -0.1750    1.5210 c         1 MOL      0.420659
     63 O10        -7.6270    0.3000    2.5870 o         1 MOL     -0.520787
     64 C21        -8.0490   -2.6610    1.9250 c3        1 MOL     -0.442855
     65 C22        -9.3920   -2.9880    1.1430 c         1 MOL      0.801053
     66 O11        -9.3810   -4.0120    0.4210 o         1 MOL     -0.744685
     67 O12       -10.2360   -2.1350    1.0450 o         1 MOL     -0.744685
     68 H28        -8.3380   -1.7440   -0.7640 hn        1 MOL      0.332322
     69 H29        -6.3080   -1.6460    1.4830 h1        1 MOL      0.055788
     70 H30        -8.4280   -2.3010    2.8860 hc        1 MOL      0.092777
     71 H31        -7.4830   -3.5780    2.0910 hc        1 MOL      0.092777
     72 N7         -8.5310    0.5490    0.6120 n         1 MOL     -0.109055
     73 C23        -8.9110    2.0010    0.7210 c3        1 MOL     -0.360376
     74 C24        -7.7330    2.9870    0.9290 c         1 MOL      0.561339
     75 O13        -7.9220    4.0660    1.4800 o         1 MOL     -0.534400
     76 H32        -8.7620    0.0860   -0.2510 hn        1 MOL      0.195383
     77 H33        -9.5370    2.0740    1.6070 h1        1 MOL      0.168211
     78 H34        -9.5410    2.3630   -0.0910 h1        1 MOL      0.168211
     79 N8         -6.4980    2.6050    0.4750 n         1 MOL     -0.232017
     80 C25        -5.3050    3.4190    0.3690 c3        1 MOL     -0.010686
     81 C26        -4.5380    3.2010   -0.9110 c         1 MOL      0.512382
     82 O14        -4.5040    2.1470   -1.5500 o         1 MOL     -0.482523
     83 C27        -4.3700    3.2590    1.5580 c3        1 MOL      0.161180
     84 C28        -3.8860    1.8090    1.7390 c3        1 MOL     -0.264387
     85 O15        -5.0640    3.5330    2.8160 oh        1 MOL     -0.565029
     86 H35        -6.4590    1.6830    0.0700 hn        1 MOL      0.075398
     87 H36        -5.5370    4.4840    0.3440 h1        1 MOL      0.035849
     88 H37        -3.5220    3.9360    1.5890 h1        1 MOL      0.005839
     89 H38        -5.5250    4.3670    2.7260 ho        1 MOL      0.382557
     90 H39        -3.0010    1.7790    2.3840 hc        1 MOL      0.117994
     91 H40        -4.7130    1.2230    2.1350 hc        1 MOL      0.117994
     92 H41        -3.6660    1.3460    0.7790 hc        1 MOL      0.117994
     93 N9         -3.8030    4.2310   -1.2890 n         1 MOL     -0.471009
     94 C29        -2.8590    4.2340   -2.4300 c3        1 MOL     -0.064170
     95 C30        -1.3680    4.3580   -1.9790 c         1 MOL      0.417951
     96 O16        -0.5080    4.7250   -2.8270 o         1 MOL     -0.542413
     97 C31        -3.3510    5.2990   -3.4220 c3        1 MOL      0.184513
     98 C32        -3.4400    6.7610   -3.0170 c3        1 MOL      0.101211
     99 C33        -4.6500    4.8150   -4.0440 c3        1 MOL     -0.342105
    100 C34        -2.1260    7.3450   -2.4770 c3        1 MOL      0.018324
    101 H42        -3.9200    5.1400   -0.8690 hn        1 MOL      0.327102
    102 H43        -2.8160    3.2820   -2.9530 h1        1 MOL      0.152886
    103 H44        -2.6450    5.2340   -4.2480 hc        1 MOL      0.015014
    104 H45        -4.1210    6.7600   -2.1740 hc        1 MOL     -0.049184
    105 H46        -3.8420    7.3230   -3.8590 hc        1 MOL     -0.049184
    106 H47        -4.9640    5.5460   -4.7940 hc        1 MOL      0.082498
    107 H48        -4.4870    3.8680   -4.5550 hc        1 MOL      0.082498
    108 H49        -5.4450    4.7580   -3.3060 hc        1 MOL      0.082498
    109 H50        -2.0260    6.9350   -1.4670 hc        1 MOL     -0.009662
    110 H51        -1.2580    7.1950   -3.1150 hc        1 MOL     -0.009662
    111 H52        -2.2600    8.4070   -2.2620 hc        1 MOL     -0.009662
    112 N10        -1.0900    4.1700   -0.7230 n         1 MOL     -0.086977
    113 C35         0.3410    4.3720   -0.2270 c3        1 MOL     -0.253214
    114 C36         1.3850    3.4250   -0.8610 c         1 MOL      0.675988
    115 O17         1.1510    2.1830   -0.8380 o         1 MOL     -0.485937
    116 C37         0.4730    4.5210    1.3030 c3        1 MOL      0.267321
    117 C38        -0.2400    3.4590    2.0990 c3        1 MOL     -0.178238
    118 O18        -0.1160    5.7660    1.8000 oh        1 MOL     -0.649274
    119 H53        -1.8130    3.9940   -0.0430 hn        1 MOL      0.154137
    120 H54         0.6300    5.3800   -0.5300 h1        1 MOL      0.094215
    121 H55         1.5180    4.5220    1.6080 h1        1 MOL      0.023703
    122 H56         0.2220    5.9840    2.6770 ho        1 MOL      0.400470
    123 H57        -0.2600    3.6830    3.1640 hc        1 MOL      0.069835
    124 H58        -1.2360    3.2890    1.6980 hc        1 MOL      0.069835
    125 H59         0.2950    2.5380    1.8930 hc        1 MOL      0.069835
    126 N11         2.4780    4.0150   -1.4240 n         1 MOL     -0.457676
    127 C39         3.6480    3.1900   -1.7960 c3        1 MOL     -0.205678
    128 C40         4.5290    2.7700   -0.6440 c         1 MOL      0.466230
    129 O19         4.4140    3.3900    0.3750 o         1 MOL     -0.508040
    130 C41         4.5490    3.8790   -2.8060 c3        1 MOL      0.440736
    131 C42         5.2210    5.1170   -2.3580 c3        1 MOL     -0.146636
    132 O20         3.7050    4.2360   -3.8770 oh        1 MOL     -0.625344
    133 H60         2.5530    5.0210   -1.4750 hn        1 MOL      0.329174
    134 H61         3.2510    2.2770   -2.2430 h1        1 MOL      0.113185
    135 H62         5.3270    3.2290   -3.1960 h1        1 MOL     -0.039102
    136 H63         3.2010    3.4500   -4.0850 ho        1 MOL      0.406432
    137 H64         5.8170    4.9540   -1.4680 hc        1 MOL      0.042900
    138 H65         5.9250    5.5200   -3.0840 hc        1 MOL      0.042900
    139 H66         4.4470    5.8220   -2.0610 hc        1 MOL      0.042900
    140 N12         5.4380    1.7910   -0.8660 n         1 MOL     -0.249075
    141 C43         6.5860    1.5740    0.0110 c3        1 MOL      0.014818
    142 C44         6.3910    0.4200    0.9960 c         1 MOL      0.471288
    143 O21         7.1910    0.3640    1.9540 o         1 MOL     -0.587824
    144 C45         7.8920    1.5810   -0.7970 c3        1 MOL     -0.085343
    145 C46         8.3870    2.9530   -1.4130 c3        1 MOL     -0.116314
    146 C47         8.7720    3.9410   -0.3000 c3        1 MOL     -0.215749
    147 C48        10.2830    3.7240   -0.0050 c3        1 MOL      0.122143
    148 N13        10.7940    4.7720    0.9430 n4        1 MOL     -0.253473
    149 H67         5.4190    1.2580   -1.7260 hn        1 MOL      0.244827
    150 H68         6.6050    2.4250    0.7020 h1        1 MOL      0.053967
    151 H69         7.8750    0.8750   -1.6310 hc        1 MOL      0.070745
    152 H70         8.6320    1.2730   -0.0490 hc        1 MOL      0.070745
    153 H71         7.6020    3.3840   -2.0450 hc        1 MOL      0.072797
    154 H72         9.1980    2.6070   -2.0570 hc        1 MOL      0.072797
    155 H73         8.2410    3.7900    0.6450 hc        1 MOL      0.093445
    156 H74         8.5700    4.9700   -0.5930 hc        1 MOL      0.093445
    157 H75        10.9010    3.7980   -0.8980 hx        1 MOL      0.068683
    158 H76        10.4930    2.7270    0.3630 hx        1 MOL      0.068683
    159 H77        10.5770    5.7290    0.6960 hn        1 MOL      0.251381
    160 H78        10.5180    4.6700    1.9110 hn        1 MOL      0.251381
    161 H79        11.8060    4.8100    0.9300 hn        1 MOL      0.251381
    162 N14         5.5640   -0.5910    0.7580 n         1 MOL     -0.288552
    163 C49         5.2310   -1.7580    1.6190 c3        1 MOL      0.055547
    164 C50         6.3280   -2.8820    1.5510 c         1 MOL      0.399931
    165 O22         6.3650   -3.6580    0.6060 o         1 MOL     -0.455636
    166 C51         3.7100   -2.0990    1.4700 c3        1 MOL     -0.098547
    167 C52         3.1780   -3.1580    2.4130 c3        1 MOL     -0.256339
    168 C53         3.3730   -2.8340    3.8900 c         1 MOL      0.524378
    169 O23         4.1530   -3.6170    4.4640 o         1 MOL     -0.665505
    170 O24         2.6480   -2.0540    4.5500 o         1 MOL     -0.665505
    171 H80         4.9690   -0.4630   -0.0460 hn        1 MOL      0.181142
    172 H81         5.4150   -1.3230    2.6020 h1        1 MOL      0.087778
    173 H82         3.5680   -2.4490    0.4490 hc        1 MOL      0.066023
    174 H83         3.2660   -1.1290    1.6770 hc        1 MOL      0.066023
    175 H84         3.7900   -4.0140    2.1590 hc        1 MOL      0.119890
    176 H85         2.1250   -3.3310    2.1640 hc        1 MOL      0.119890
    177 N15         7.2290   -2.9360    2.5470 n         1 MOL     -0.178771
    178 C54         8.4540   -3.7370    2.4440 c3        1 MOL     -0.227851
    179 H86         9.1260   -3.4810    3.2620 h1        1 MOL      0.100034
    180 H87         8.2020   -4.7970    2.5000 h1        1 MOL      0.100034
    181 H88         8.9450   -3.5310    1.4930 h1        1 MOL      0.100034
    182 H89         7.1590   -2.1650    3.2030 hn        1 MOL      0.232485
    183 Ca1         0.1590   -1.1250    4.6870 Ca        1 MOL      1.769078
    184 O25         1.6120    1.0500    4.9270 oh        1 MOL     -0.854653
    185 H90         2.1100    1.3280    4.1630 ho        1 MOL      0.421019
    186 H91         2.0190    1.5150    5.6620 ho        1 MOL      0.421019
    187 O26         0.8120   -0.4470    7.4130 oh        1 MOL     -0.854653
    188 H92         0.4270   -0.7410    8.2400 ho        1 MOL      0.421019
    189 H93         0.9200    0.5030    7.5210 ho        1 MOL      0.421019
    190 O27        -1.3420    1.0280    5.7450 oh        1 MOL     -0.854653
    191 H94        -1.8410    0.9920    6.5620 ho        1 MOL      0.421019
    192 H95        -1.0730    1.9460    5.6720 ho        1 MOL      0.421019
    193 O28         1.1260   -3.2460    6.3810 oh        1 MOL     -0.854653
    194 H96         1.1650   -4.0190    6.9400 ho        1 MOL      0.421019
    195 H97         2.0310   -3.0970    6.1130 ho        1 MOL      0.421019
@<TRIPOS>BOND
     1    1    2 1   
     2    1    4 1   
     3    1    5 1   
     4    1    6 1   
     5    2    3 2   
     6    2    7 1   
     7    7    8 1   
     8    7   15 1   
     9    8    9 1   
    10    8   11 1   
    11    8   16 1   
    12    9   10 2   
    13    9   19 1   
    14   11   12 1   
    15   11   17 1   
    16   11   18 1   
    17   12   13 1   
    18   12   14 1   
    19   19   20 1   
    20   19   28 1   
    21   20   21 1   
    22   20   23 1   
    23   20   29 1   
    24   21   22 2   
    25   21   41 1   
    26   23   24 1   
    27   23   30 1   
    28   23   31 1   
    29   24   25 1   
    30   24   32 1   
    31   24   33 1   
    32   25   26 1   
    33   25   34 1   
    34   25   35 1   
    35   26   27 1   
    36   26   36 1   
    37   26   37 1   
    38   27   38 1   
    39   27   39 1   
    40   27   40 1   
    41   41   42 1   
    42   41   49 1   
    43   42   43 1   
    44   42   45 1   
    45   42   50 1   
    46   43   44 2   
    47   43   53 1   
    48   45   46 1   
    49   45   51 1   
    50   45   52 1   
    51   46   47 1   
    52   46   48 1   
    53   53   54 1   
    54   53   57 1   
    55   54   55 1   
    56   54   58 1   
    57   54   59 1   
    58   55   56 2   
    59   55   60 1   
    60   60   61 1   
    61   60   68 1   
    62   61   62 1   
    63   61   64 1   
    64   61   69 1   
    65   62   63 2   
    66   62   72 1   
    67   64   65 1   
    68   64   70 1   
    69   64   71 1   
    70   65   66 1   
    71   65   67 1   
    72   72   73 1   
    73   72   76 1   
    74   73   74 1   
    75   73   77 1   
    76   73   78 1   
    77   74   75 2   
    78   74   79 1   
    79   79   80 1   
    80   79   86 1   
    81   80   81 1   
    82   80   83 1   
    83   80   87 1   
    84   81   82 2   
    85   81   93 1   
    86   83   84 1   
    87   83   85 1   
    88   83   88 1   
    89   84   90 1   
    90   84   91 1   
    91   84   92 1   
    92   85   89 1   
    93   93   94 1   
    94   93  101 1   
    95   94   95 1   
    96   94   97 1   
    97   94  102 1   
    98   95   96 2   
    99   95  112 1   
   100   97   98 1   
   101   97   99 1   
   102   97  103 1   
   103   98  100 1   
   104   98  104 1   
   105   98  105 1   
   106   99  106 1   
   107   99  107 1   
   108   99  108 1   
   109  100  109 1   
   110  100  110 1   
   111  100  111 1   
   112  112  113 1   
   113  112  119 1   
   114  113  114 1   
   115  113  116 1   
   116  113  120 1   
   117  114  115 2   
   118  114  126 1   
   119  116  117 1   
   120  116  118 1   
   121  116  121 1   
   122  117  123 1   
   123  117  124 1   
   124  117  125 1   
   125  118  122 1   
   126  126  127 1   
   127  126  133 1   
   128  127  128 1   
   129  127  130 1   
   130  127  134 1   
   131  128  129 2   
   132  128  140 1   
   133  130  131 1   
   134  130  132 1   
   135  130  135 1   
   136  131  137 1   
   137  131  138 1   
   138  131  139 1   
   139  132  136 1   
   140  140  141 1   
   141  140  149 1   
   142  141  142 1   
   143  141  144 1   
   144  141  150 1   
   145  142  143 2   
   146  142  162 1   
   147  144  145 1   
   148  144  151 1   
   149  144  152 1   
   150  145  146 1   
   151  145  153 1   
   152  145  154 1   
   153  146  147 1   
   154  146  155 1   
   155  146  156 1   
   156  147  148 1   
   157  147  157 1   
   158  147  158 1   
   159  148  159 1   
   160  148  160 1   
   161  148  161 1   
   162  162  163 1   
   163  162  171 1   
   164  163  164 1   
   165  163  166 1   
   166  163  172 1   
   167  164  165 2   
   168  164  177 1   
   169  166  167 1   
   170  166  173 1   
   171  166  174 1   
   172  167  168 1   
   173  167  175 1   
   174  167  176 1   
   175  168  169 1   
   176  168  170 1   
   177  177  178 1   
   178  177  182 1   
   179  178  179 1   
   180  178  180 1   
   181  178  181 1   
   182  184  185 1   
   183  184  186 1   
   184  187  188 1   
   185  187  189 1   
   186  190  191 1   
   187  190  192 1   
   188  193  194 1   
   189  193  195 1   
@<TRIPOS>SUBSTRUCTURE
     1 MOL         1 TEMP              0 ****  ****    0 ROOT
