@<TRIPOS>MOLECULE
MOL
  192   187     1     0     0
SMALL
resp


@<TRIPOS>ATOM
      1 C1          4.2450    3.2050   -3.9370 c3        1 MOL     -0.478383
      2 C2          5.0710    2.7460   -2.7410 c         1 MOL      0.878116
      3 O1          4.6240    2.5100   -1.7040 o         1 MOL     -0.706737
      4 H1          4.2300    2.4180   -4.6910 hc        1 MOL      0.111095
      5 H2          3.2250    3.4170   -3.6150 hc        1 MOL      0.111095
      6 H3          4.6880    4.1060   -4.3600 hc        1 MOL      0.111095
      7 N1          6.3340    2.3880   -2.9590 n         1 MOL     -0.600782
      8 C3          7.1540    1.3120   -2.3330 c3        1 MOL      0.352699
      9 C4          6.2160    0.1860   -1.9320 c         1 MOL      0.164950
     10 O2          5.8460    0.0830   -0.7960 o         1 MOL     -0.338843
     11 C5          8.0990    1.9810   -1.3000 c3        1 MOL     -0.270777
     12 C6          7.5250    3.1550   -0.5100 c         1 MOL      0.817325
     13 O3          6.7570    2.9430    0.4390 o         1 MOL     -0.760249
     14 O4          7.7240    4.3030   -0.9470 o         1 MOL     -0.760249
     15 H4          6.6840    2.5400   -3.8900 hn        1 MOL      0.258258
     16 H5          7.7600    0.8870   -3.1320 h1        1 MOL      0.001474
     17 H6          8.9080    2.3910   -1.9110 hc        1 MOL      0.033877
     18 H7          8.4770    1.2480   -0.5800 hc        1 MOL      0.033877
     19 N2          5.6720   -0.4880   -2.9800 n         1 MOL     -0.235070
     20 C7          4.7400   -1.6500   -2.9450 c3        1 MOL      0.062250
     21 C8          5.4250   -2.7160   -2.0880 c         1 MOL      0.285631
     22 O5          5.8250   -3.7470   -2.6320 o         1 MOL     -0.550688
     23 C9          3.2570   -1.4570   -2.4870 c3        1 MOL      0.230731
     24 C10         2.4110   -2.7020   -2.7110 c3        1 MOL      0.231127
     25 C11         2.6140   -0.1840   -3.1300 c3        1 MOL     -0.294700
     26 C12         2.3880   -3.2530   -4.1670 c3        1 MOL     -0.405128
     27 H8          5.8730   -0.1770   -3.9190 hn        1 MOL      0.209714
     28 H9          4.6330   -1.9760   -3.9740 h1        1 MOL      0.029839
     29 H10         3.2360   -1.3210   -1.4010 hc        1 MOL     -0.067581
     30 H11         1.3820   -2.4820   -2.4030 hc        1 MOL     -0.030324
     31 H12         2.6330   -3.4300   -1.9350 hc        1 MOL     -0.030324
     32 H13         3.0470    0.6670   -2.5900 hc        1 MOL      0.044310
     33 H14         2.7600   -0.2360   -4.2070 hc        1 MOL      0.044310
     34 H15         1.5660   -0.0500   -2.8700 hc        1 MOL      0.044310
     35 H16         1.6900   -4.1000   -4.2050 hc        1 MOL      0.086155
     36 H17         2.1050   -2.4350   -4.8370 hc        1 MOL      0.086155
     37 H18         3.2740   -3.7940   -4.4800 hc        1 MOL      0.086155
     38 N3          5.6600   -2.5060   -0.7760 n         1 MOL      0.066941
     39 C13         6.4560   -3.3790    0.0400 c3        1 MOL      0.159051
     40 C14         5.8120   -4.6740    0.5380 c         1 MOL      0.432943
     41 O6          6.4850   -5.7200    0.4390 o         1 MOL     -0.560156
     42 C15         7.1100   -2.6220    1.2240 c3        1 MOL     -0.289266
     43 C16         8.2240   -1.6490    0.7970 c         1 MOL      0.787038
     44 O7          8.6990   -1.7140   -0.4070 o         1 MOL     -0.707520
     45 O8          8.8850   -1.0720    1.6610 o         1 MOL     -0.707520
     46 H19         5.2260   -1.7070   -0.3440 hn        1 MOL     -0.114084
     47 H20         7.3650   -3.6750   -0.4780 h1        1 MOL      0.038893
     48 H21         7.5510   -3.3850    1.8730 hc        1 MOL      0.057121
     49 H22         6.3600   -2.1100    1.8220 hc        1 MOL      0.057121
     50 N4          4.5790   -4.6540    1.1190 n         1 MOL     -0.433854
     51 C17         3.7390   -3.5540    1.4820 c3        1 MOL      0.094216
     52 C18         2.5070   -3.9960    2.2720 c         1 MOL      0.515636
     53 O9          2.0830   -5.1160    2.2330 o         1 MOL     -0.550604
     54 H23         4.2020   -5.5460    1.4100 hn        1 MOL      0.263412
     55 H24         3.3070   -3.1410    0.5770 h1        1 MOL      0.068659
     56 H25         4.2620   -2.8970    2.1780 h1        1 MOL      0.068659
     57 N5          1.7630   -3.1150    2.9710 n         1 MOL     -0.529156
     58 C19         2.1080   -1.7610    3.3550 c3        1 MOL      0.511839
     59 C20         2.3510   -0.9140    2.0730 c         1 MOL     -0.048351
     60 O10         3.4910   -0.4550    1.7870 o         1 MOL     -0.445393
     61 C21         3.2530   -1.6490    4.4040 c3        1 MOL     -0.462452
     62 C22         3.3270   -0.3220    5.2190 c         1 MOL      0.730668
     63 O11         4.2930   -0.1850    6.0100 o         1 MOL     -0.687184
     64 O12         2.4870    0.5750    5.0250 o         1 MOL     -0.687184
     65 H26         0.9570   -3.5280    3.4020 hn        1 MOL      0.282563
     66 H27         1.2050   -1.4210    3.8680 h1        1 MOL     -0.001720
     67 H28         4.2250   -1.6660    3.8930 hc        1 MOL      0.084100
     68 H29         3.1430   -2.4360    5.1510 hc        1 MOL      0.084100
     69 N6          1.3960   -0.7660    1.2120 n         1 MOL     -0.045941
     70 C23         0.0740   -1.3000    1.2750 c3        1 MOL     -0.329641
     71 C24        -0.1990   -2.5800    0.5190 c         1 MOL      0.545592
     72 O13         0.6820   -3.1130   -0.0780 o         1 MOL     -0.431613
     73 H30         1.6650   -0.2060    0.4110 hn        1 MOL      0.209170
     74 H31        -0.5440   -0.5330    0.8050 h1        1 MOL      0.134079
     75 H32        -0.3740   -1.3770    2.2690 h1        1 MOL      0.134079
     76 N7         -1.4620   -3.0580    0.5090 n         1 MOL     -0.433339
     77 C25        -1.9930   -4.2880   -0.1980 c3        1 MOL      0.064162
     78 C26        -2.5000   -3.9980   -1.6950 c         1 MOL      0.434158
     79 O14        -2.4970   -4.9050   -2.4860 o         1 MOL     -0.500206
     80 C27        -2.9790   -5.0280    0.6520 c3        1 MOL     -0.025613
     81 C28        -4.2920   -4.2120    0.8410 c3        1 MOL     -0.016230
     82 C29        -5.2400   -4.8490    1.7980 c         1 MOL      0.600480
     83 N8         -6.5160   -4.8450    1.5840 n         1 MOL     -0.771005
     84 O15        -4.7910   -5.4120    2.8100 o         1 MOL     -0.587992
     85 H33        -2.0780   -2.6320    1.1850 hn        1 MOL      0.261197
     86 H34        -1.1470   -4.9480   -0.3700 h1        1 MOL      0.078503
     87 H35        -2.6210   -5.0990    1.6860 hc        1 MOL      0.044637
     88 H36        -3.2460   -6.0170    0.2820 hc        1 MOL      0.044637
     89 H37        -4.8260   -4.2220   -0.1070 hc        1 MOL     -0.011452
     90 H38        -4.0350   -3.2110    1.1850 hc        1 MOL     -0.011452
     91 H39        -6.8660   -4.6640    0.6520 hn        1 MOL      0.353669
     92 H40        -7.1200   -5.3280    2.2370 hn        1 MOL      0.353669
     93 N9         -3.0620   -2.8110   -1.8200 n         1 MOL     -0.291272
     94 C30        -3.6630   -2.4510   -3.1430 c3        1 MOL     -0.082909
     95 C31        -5.0910   -1.9250   -3.1440 c         1 MOL      0.308940
     96 O16        -5.6090   -1.7080   -4.2340 o         1 MOL     -0.501342
     97 C32        -2.8240   -1.4320   -3.9080 c3        1 MOL      0.256575
     98 C33        -1.3470   -1.8460   -4.1720 c3        1 MOL     -0.151411
     99 C34        -2.8790   -0.1920   -3.0890 c3        1 MOL     -0.151411
    100 H41        -2.8570   -2.0630   -1.1830 hn        1 MOL      0.164200
    101 H42        -3.5770   -3.2790   -3.8580 h1        1 MOL      0.115205
    102 H43        -3.2650   -1.1870   -4.8710 hc        1 MOL      0.002108
    103 H44        -0.8550   -2.0670   -3.2210 hc        1 MOL      0.030491
    104 H45        -1.3710   -2.7400   -4.7990 hc        1 MOL      0.030491
    105 H46        -0.8710   -0.9940   -4.6440 hc        1 MOL      0.030491
    106 H47        -2.4050    0.5600   -3.7230 hc        1 MOL      0.030491
    107 H48        -3.8820    0.2170   -2.9560 hc        1 MOL      0.030491
    108 H49        -2.2850   -0.2040   -2.1810 hc        1 MOL      0.030491
    109 N10        -5.6810   -1.5500   -1.9450 n         1 MOL     -0.261121
    110 C35        -7.1120   -1.1510   -1.8370 c3        1 MOL      0.213936
    111 C36        -7.3130    0.2680   -1.2500 c         1 MOL      0.258016
    112 O17        -8.4700    0.6380   -1.3440 o         1 MOL     -0.500059
    113 C37        -7.8490   -2.2700   -1.0740 c3        1 MOL     -0.087287
    114 C38        -7.7750   -3.6200   -1.6830 c         1 MOL      0.729436
    115 N11        -8.1690   -3.6440   -2.9480 n         1 MOL     -0.826347
    116 O18        -7.5210   -4.5340   -0.9890 o         1 MOL     -0.549347
    117 H50        -5.2140   -1.5740   -1.0500 hn        1 MOL      0.279734
    118 H51        -7.5830   -1.1040   -2.8170 h1        1 MOL      0.037465
    119 H52        -8.8770   -1.9300   -1.0440 hc        1 MOL     -0.030444
    120 H53        -7.3410   -2.4060   -0.1170 hc        1 MOL     -0.030444
    121 H54        -8.2940   -2.7780   -3.4490 hn        1 MOL      0.374915
    122 H55        -8.2460   -4.5050   -3.4760 hn        1 MOL      0.374915
    123 N12        -6.3070    0.9940   -0.7380 n         1 MOL     -0.124899
    124 C39        -6.4600    2.3160   -0.1790 c3        1 MOL      0.219637
    125 C40        -5.0560    2.8990    0.0020 c         1 MOL      0.222941
    126 O19        -4.0650    2.1530    0.0320 o         1 MOL     -0.401438
    127 C41        -7.1880    2.2910    1.2090 c3        1 MOL     -0.347216
    128 C42        -6.9820    1.0720    2.0790 ca        1 MOL      0.216825
    129 C43        -7.7650   -0.1030    1.8250 ca        1 MOL     -0.254537
    130 C44        -5.8880    1.0270    2.9670 ca        1 MOL     -0.254537
    131 C45        -7.5080   -1.2930    2.5350 ca        1 MOL     -0.121331
    132 C46        -5.7100   -0.1540    3.7840 ca        1 MOL     -0.121331
    133 C47        -6.5490   -1.2660    3.6180 ca        1 MOL      0.119992
    134 O20        -6.3160   -2.3400    4.4790 oh        1 MOL     -0.428136
    135 H56        -5.4010    0.5820   -0.8530 hn        1 MOL      0.103234
    136 H57        -6.9280    3.0090   -0.8760 h1        1 MOL      0.047656
    137 H58        -8.2450    2.2300    0.9580 hc        1 MOL      0.088891
    138 H59        -6.7920    3.1480    1.7570 hc        1 MOL      0.088891
    139 H60        -8.5460   -0.0990    1.0900 ha        1 MOL      0.173785
    140 H61        -5.1320    1.8050    2.9880 ha        1 MOL      0.173785
    141 H62        -8.0600   -2.2140    2.4250 ha        1 MOL      0.145433
    142 H63        -4.8960   -0.2580    4.4770 ha        1 MOL      0.145433
    143 H64        -6.8600   -3.1140    4.3520 ho        1 MOL      0.342126
    144 N13        -5.0120    4.2100    0.2640 n         1 MOL     -0.503104
    145 C48        -4.0150    5.0930    0.8240 c3        1 MOL      0.380318
    146 C49        -2.7180    5.2120   -0.0490 c         1 MOL      0.345038
    147 O21        -2.1550    6.2700   -0.1860 o         1 MOL     -0.499684
    148 C50        -3.7790    4.7140    2.2990 c3        1 MOL     -0.356039
    149 C51        -2.6760    5.5680    2.9340 c3        1 MOL     -0.315810
    150 C52        -2.6290    5.4000    4.4780 c         1 MOL      0.731689
    151 O22        -1.5610    5.0600    5.0010 o         1 MOL     -0.716500
    152 O23        -3.7160    5.6000    5.1340 o         1 MOL     -0.716500
    153 H65        -5.9790    4.5150    0.1750 hn        1 MOL      0.275952
    154 H66        -4.3730    6.1210    0.7800 h1        1 MOL      0.015202
    155 H67        -3.5150    3.6600    2.3260 hc        1 MOL      0.147452
    156 H68        -4.7240    4.8900    2.8030 hc        1 MOL      0.147452
    157 H69        -2.7970    6.6070    2.6300 hc        1 MOL      0.097321
    158 H70        -1.7610    5.3160    2.4100 hc        1 MOL      0.097321
    159 N14        -2.3420    4.1630   -0.8130 n         1 MOL     -0.342600
    160 C53        -1.3980    4.2880   -1.8790 c3        1 MOL     -0.049744
    161 C54        -1.8930    5.0280   -3.1240 c         1 MOL      0.476465
    162 O24        -1.1460    5.2200   -4.0790 o         1 MOL     -0.556945
    163 C55        -0.8020    2.9350   -2.2330 c3        1 MOL     -0.063965
    164 C56        -0.3020    2.0210   -1.1030 c3        1 MOL      0.500887
    165 C57         0.9450    2.4880   -0.3920 c         1 MOL      0.452455
    166 O25         1.9510    1.7410   -0.1980 o         1 MOL     -0.594761
    167 O26         1.0090    3.6400    0.1180 o         1 MOL     -0.594761
    168 H71        -2.6390    3.2750   -0.4300 hn        1 MOL      0.202433
    169 H72        -0.5280    4.9290   -1.6960 h1        1 MOL      0.134511
    170 H73        -0.0520    3.1070   -3.0010 hc        1 MOL     -0.007992
    171 H74        -1.6180    2.4410   -2.7580 hc        1 MOL     -0.007992
    172 H75        -0.1370    1.0790   -1.6210 hc        1 MOL     -0.121704
    173 H76        -1.1290    1.8550   -0.4080 hc        1 MOL     -0.121704
    174 N15        -3.0250    5.6310   -3.1100 n         1 MOL     -0.166873
    175 C58        -3.6550    6.4860   -4.1530 c3        1 MOL     -0.227607
    176 H77        -3.5290    6.0200   -5.1300 h1        1 MOL      0.095852
    177 H78        -4.7180    6.5970   -3.9390 h1        1 MOL      0.095852
    178 H79        -3.1810    7.4670   -4.1540 h1        1 MOL      0.095852
    179 H80        -3.6140    5.5430   -2.2930 hn        1 MOL      0.179556
    180 Ca1         4.3580    1.7330    0.7540 Ca        1 MOL      1.708884
    181 O27         6.3800    0.3610    2.2250 oh        1 MOL     -0.802533
    182 H81         6.4980    0.4260    3.1820 ho        1 MOL      0.395869
    183 H82         7.0730   -0.2290    1.9410 ho        1 MOL      0.395869
    184 O28         4.8090    3.1890    3.0890 oh        1 MOL     -0.802533
    185 H83         3.8630    3.0530    3.0960 ho        1 MOL      0.395869
    186 H84         5.0360    3.2370    4.0210 ho        1 MOL      0.395869
    187 O29         2.1740    2.3800    2.6500 oh        1 MOL     -0.802533
    188 H85         1.4140    2.5110    2.0890 ho        1 MOL      0.395869
    189 H86         2.0490    1.5100    3.0210 ho        1 MOL      0.395869
    190 O30         3.5080    4.3650    0.5030 oh        1 MOL     -0.802533
    191 H87         3.8120    4.9360   -0.2010 ho        1 MOL      0.395869
    192 H88         2.5560    4.3290    0.3910 ho        1 MOL      0.395869
@<TRIPOS>BOND
     1    1    2 1   
     2    1    4 1   
     3    1    5 1   
     4    1    6 1   
     5    2    3 2   
     6    2    7 1   
     7    7    8 1   
     8    7   15 1   
     9    8    9 1   
    10    8   11 1   
    11    8   16 1   
    12    9   10 2   
    13    9   19 1   
    14   11   12 1   
    15   11   17 1   
    16   11   18 1   
    17   12   13 1   
    18   12   14 1   
    19   19   20 1   
    20   19   27 1   
    21   20   21 1   
    22   20   23 1   
    23   20   28 1   
    24   21   22 2   
    25   21   38 1   
    26   23   24 1   
    27   23   25 1   
    28   23   29 1   
    29   24   26 1   
    30   24   30 1   
    31   24   31 1   
    32   25   32 1   
    33   25   33 1   
    34   25   34 1   
    35   26   35 1   
    36   26   36 1   
    37   26   37 1   
    38   38   39 1   
    39   38   46 1   
    40   39   40 1   
    41   39   42 1   
    42   39   47 1   
    43   40   41 2   
    44   40   50 1   
    45   42   43 1   
    46   42   48 1   
    47   42   49 1   
    48   43   44 1   
    49   43   45 1   
    50   50   51 1   
    51   50   54 1   
    52   51   52 1   
    53   51   55 1   
    54   51   56 1   
    55   52   53 2   
    56   52   57 1   
    57   57   58 1   
    58   57   65 1   
    59   58   59 1   
    60   58   61 1   
    61   58   66 1   
    62   59   60 2   
    63   59   69 1   
    64   61   62 1   
    65   61   67 1   
    66   61   68 1   
    67   62   63 1   
    68   62   64 1   
    69   69   70 1   
    70   69   73 1   
    71   70   71 1   
    72   70   74 1   
    73   70   75 1   
    74   71   72 2   
    75   71   76 1   
    76   76   77 1   
    77   76   85 1   
    78   77   78 1   
    79   77   80 1   
    80   77   86 1   
    81   78   79 2   
    82   78   93 1   
    83   80   81 1   
    84   80   87 1   
    85   80   88 1   
    86   81   82 1   
    87   81   89 1   
    88   81   90 1   
    89   82   83 1   
    90   82   84 2   
    91   83   91 1   
    92   83   92 1   
    93   93   94 1   
    94   93  100 1   
    95   94   95 1   
    96   94   97 1   
    97   94  101 1   
    98   95   96 2   
    99   95  109 1   
   100   97   98 1   
   101   97   99 1   
   102   97  102 1   
   103   98  103 1   
   104   98  104 1   
   105   98  105 1   
   106   99  106 1   
   107   99  107 1   
   108   99  108 1   
   109  109  110 1   
   110  109  117 1   
   111  110  111 1   
   112  110  113 1   
   113  110  118 1   
   114  111  112 2   
   115  111  123 1   
   116  113  114 1   
   117  113  119 1   
   118  113  120 1   
   119  114  115 1   
   120  114  116 2   
   121  115  121 1   
   122  115  122 1   
   123  123  124 1   
   124  123  135 1   
   125  124  125 1   
   126  124  127 1   
   127  124  136 1   
   128  125  126 2   
   129  125  144 1   
   130  127  128 1   
   131  127  137 1   
   132  127  138 1   
   133  128  129 ar  
   134  128  130 ar  
   135  129  131 ar  
   136  129  139 1   
   137  130  132 ar  
   138  130  140 1   
   139  131  133 ar  
   140  131  141 1   
   141  132  133 ar  
   142  132  142 1   
   143  133  134 1   
   144  134  143 1   
   145  144  145 1   
   146  144  153 1   
   147  145  146 1   
   148  145  148 1   
   149  145  154 1   
   150  146  147 2   
   151  146  159 1   
   152  148  149 1   
   153  148  155 1   
   154  148  156 1   
   155  149  150 1   
   156  149  157 1   
   157  149  158 1   
   158  150  151 1   
   159  150  152 1   
   160  159  160 1   
   161  159  168 1   
   162  160  161 1   
   163  160  163 1   
   164  160  169 1   
   165  161  162 2   
   166  161  174 1   
   167  163  164 1   
   168  163  170 1   
   169  163  171 1   
   170  164  165 1   
   171  164  172 1   
   172  164  173 1   
   173  165  166 1   
   174  165  167 1   
   175  174  175 1   
   176  174  179 1   
   177  175  176 1   
   178  175  177 1   
   179  175  178 1   
   180  181  182 1   
   181  181  183 1   
   182  184  185 1   
   183  184  186 1   
   184  187  188 1   
   185  187  189 1   
   186  190  191 1   
   187  190  192 1   
@<TRIPOS>SUBSTRUCTURE
     1 MOL         1 TEMP              0 ****  ****    0 ROOT
