@<TRIPOS>MOLECULE
MOL
  179   176     1     0     0
SMALL
resp


@<TRIPOS>ATOM
      1 C1         -0.2080   -5.8580    5.0250 c3        1 MOL     -0.418219
      2 C2         -0.0640   -5.1300    3.6710 c         1 MOL      0.767142
      3 O1         -0.9780   -5.0180    2.8400 o         1 MOL     -0.625239
      4 H1         -0.5880   -5.1620    5.7720 hc        1 MOL      0.117636
      5 H2         -0.9040   -6.6910    4.9180 hc        1 MOL      0.117636
      6 H3          0.7650   -6.2350    5.3410 hc        1 MOL      0.117636
      7 N1          1.0410   -4.3910    3.4960 n         1 MOL     -0.576212
      8 C3          1.3640   -3.7380    2.1870 c3        1 MOL     -0.073779
      9 C4          1.7100   -4.8100    1.1220 c         1 MOL      0.448231
     10 O2          2.4980   -5.7710    1.2630 o         1 MOL     -0.513044
     11 C5          2.5620   -2.8110    2.4300 c3        1 MOL     -0.113393
     12 C6          2.9620   -1.8380    1.3340 c         1 MOL      0.409087
     13 O3          3.7910   -0.9180    1.5680 o         1 MOL     -0.655567
     14 O4          2.6080   -2.1210    0.1730 o         1 MOL     -0.655567
     15 H4          1.8400   -4.6020    4.0770 hn        1 MOL      0.314967
     16 H5          0.5410   -3.1000    1.8750 h1        1 MOL      0.154746
     17 H6          3.4390   -3.3860    2.7480 hc        1 MOL      0.093922
     18 H7          2.2940   -2.0980    3.2100 hc        1 MOL      0.093922
     19 N2          0.9960   -4.7610    0.0150 n         1 MOL     -0.150124
     20 C7          1.1390   -5.5660   -1.1640 c3        1 MOL     -0.178151
     21 C8          2.4750   -5.3310   -1.9340 c         1 MOL      0.577125
     22 O5          2.6750   -6.0150   -2.9060 o         1 MOL     -0.553578
     23 C9         -0.0340   -5.2710   -2.1200 c3        1 MOL      0.043280
     24 C10         0.0570   -3.9190   -2.8480 c3        1 MOL     -0.059058
     25 C11        -1.1910   -3.3440   -3.5670 c3        1 MOL     -0.050445
     26 C12        -1.7600   -2.1480   -2.8360 c3        1 MOL      0.275469
     27 N3         -2.9180   -1.5830   -3.5500 n4        1 MOL     -0.633133
     28 H8          0.2010   -4.1460    0.0100 hn        1 MOL      0.189087
     29 H9          1.1950   -6.6210   -0.8990 h1        1 MOL      0.137692
     30 H10        -0.9690   -5.4300   -1.5770 hc        1 MOL      0.015897
     31 H11        -0.0280   -6.0720   -2.8540 hc        1 MOL      0.015897
     32 H12         0.7680   -4.0510   -3.6660 hc        1 MOL      0.067764
     33 H13         0.4640   -3.1970   -2.1390 hc        1 MOL      0.067764
     34 H14        -1.9410   -4.1320   -3.5830 hc        1 MOL      0.029869
     35 H15        -0.9180   -3.0540   -4.5800 hc        1 MOL      0.029869
     36 H16        -0.9670   -1.4010   -2.7820 hx        1 MOL      0.001751
     37 H17        -2.0740   -2.3870   -1.8270 hx        1 MOL      0.001751
     38 H18        -2.6740   -1.3380   -4.5010 hn        1 MOL      0.373254
     39 H19        -3.7470   -2.1540   -3.5860 hn        1 MOL      0.373254
     40 H20        -3.2740   -0.7890   -3.0540 hn        1 MOL      0.373254
     41 N4          3.3850   -4.4250   -1.5440 n         1 MOL     -0.279488
     42 C13         4.6670   -4.2030   -2.2680 c3        1 MOL      0.032751
     43 C14         5.7830   -3.9260   -1.2280 c         1 MOL      0.512884
     44 O6          6.9360   -4.4180   -1.4960 o         1 MOL     -0.541164
     45 C15         4.5220   -3.0470   -3.2880 c3        1 MOL     -0.200001
     46 C16         3.9520   -1.7470   -2.6670 c         1 MOL      0.709010
     47 O7          4.6520   -1.1980   -1.7570 o         1 MOL     -0.761820
     48 O8          2.8220   -1.2170   -2.9300 o         1 MOL     -0.761820
     49 H21         3.1240   -3.7770   -0.8150 hn        1 MOL      0.038199
     50 H22         5.0760   -5.0860   -2.7640 h1        1 MOL      0.110426
     51 H23         4.0050   -3.3980   -4.1810 hc        1 MOL      0.074240
     52 H24         5.5020   -2.7220   -3.6290 hc        1 MOL      0.074240
     53 N5          5.5470   -3.3250   -0.0320 n         1 MOL     -0.386086
     54 C17         6.6440   -3.2420    0.9290 c3        1 MOL     -0.241524
     55 C18         7.5040   -2.0010    0.8440 c         1 MOL      0.550738
     56 O9          8.5150   -1.9750    1.4650 o         1 MOL     -0.553291
     57 H25         4.7400   -2.7290    0.1010 hn        1 MOL      0.474486
     58 H26         7.3220   -4.0740    0.7960 h1        1 MOL      0.142858
     59 H27         6.1840   -3.3440    1.9210 h1        1 MOL      0.142858
     60 N6          7.0090   -0.9780    0.1540 n         1 MOL     -0.068913
     61 C19         7.5470    0.3830    0.1160 c3        1 MOL      0.019610
     62 C20         6.4970    1.4980    0.1730 c         1 MOL      0.433958
     63 O10         5.3320    1.2480   -0.1210 o         1 MOL     -0.390292
     64 C21         8.4750    0.4890   -1.1750 c3        1 MOL     -0.302579
     65 C22         7.8200    1.0980   -2.4210 c         1 MOL      0.589545
     66 N7          6.7470    0.4990   -2.8880 n         1 MOL     -0.632623
     67 O11         8.2410    2.1480   -2.8640 o         1 MOL     -0.579496
     68 H28         6.1080   -1.0800   -0.2920 hn        1 MOL     -0.009372
     69 H29         8.1770    0.5840    0.9720 h1        1 MOL      0.051291
     70 H30         8.6820   -0.5490   -1.4640 hc        1 MOL      0.116906
     71 H31         9.3880    1.0110   -0.9090 hc        1 MOL      0.116906
     72 H32         6.3170   -0.2930   -2.4360 hn        1 MOL      0.318725
     73 H33         6.4450    0.7170   -3.8260 hn        1 MOL      0.318725
     74 N8          6.9220    2.7950    0.3370 n         1 MOL     -0.344663
     75 C23         6.1810    4.0420    0.1720 c3        1 MOL     -0.227513
     76 C24         5.0090    4.1600    1.0270 c         1 MOL      0.571845
     77 O12         5.0610    3.9570    2.2350 o         1 MOL     -0.496676
     78 H34         7.9180    2.9300    0.3350 hn        1 MOL      0.306386
     79 H35         5.9040    4.0820   -0.8770 h1        1 MOL      0.132743
     80 H36         6.7590    4.9240    0.4670 h1        1 MOL      0.132743
     81 N9          3.7860    4.3950    0.4140 n         1 MOL     -0.460899
     82 C25         2.4990    4.4570    1.1430 c3        1 MOL      0.387111
     83 C26         1.9870    3.0560    1.5260 c         1 MOL      0.356099
     84 O13         2.5370    2.0530    1.1240 o         1 MOL     -0.467877
     85 C27         1.5050    5.2330    0.3380 c3        1 MOL     -0.265130
     86 C28         1.7050    6.6980    0.0360 ca        1 MOL      0.237824
     87 C29         2.7850    7.4800    0.5970 ca        1 MOL     -0.311091
     88 C30         0.9530    7.2170   -1.0130 ca        1 MOL     -0.311091
     89 C31         3.1260    8.7920    0.1570 ca        1 MOL     -0.160048
     90 C32         1.3110    8.5150   -1.4870 ca        1 MOL     -0.160048
     91 C33         2.3740    9.2640   -0.9290 ca        1 MOL      0.255582
     92 O14         2.7430   10.4190   -1.5520 oh        1 MOL     -0.443257
     93 H37         3.7350    4.3940   -0.5950 hn        1 MOL      0.188331
     94 H38         2.6090    5.0090    2.0710 h1        1 MOL      0.015521
     95 H39         0.5320    5.3430    0.8180 hc        1 MOL      0.032577
     96 H40         1.2380    4.6520   -0.5460 hc        1 MOL      0.032577
     97 H41         3.4390    7.0470    1.3410 ha        1 MOL      0.164847
     98 H42         0.2660    6.5650   -1.5280 ha        1 MOL      0.164847
     99 H43         3.9700    9.3220    0.5740 ha        1 MOL      0.152207
    100 H44         0.7820    8.9180   -2.3380 ha        1 MOL      0.152207
    101 H45         2.2440   10.6120   -2.3470 ho        1 MOL      0.342284
    102 N10         0.8860    2.9750    2.2720 n         1 MOL     -0.398913
    103 C34         0.1450    1.8040    2.6740 c3        1 MOL     -0.196702
    104 C35        -0.2670    0.8170    1.5380 c         1 MOL      0.789480
    105 O15         0.5620    0.2000    0.9300 o         1 MOL     -0.590545
    106 C36         0.9320    1.2990    3.9190 c3        1 MOL      0.146891
    107 C37         0.3690   -0.0610    4.4420 c3        1 MOL      0.048958
    108 C38         0.9670    2.4380    5.0290 c3        1 MOL     -0.170433
    109 C39         1.1090   -0.6460    5.6690 c3        1 MOL     -0.195135
    110 H46         0.4520    3.8450    2.5360 hn        1 MOL      0.276839
    111 H47        -0.8060    2.2330    2.9990 h1        1 MOL      0.104093
    112 H48         1.9810    1.0940    3.6960 hc        1 MOL      0.087821
    113 H49         0.2700   -0.7710    3.6230 hc        1 MOL     -0.020118
    114 H50        -0.6490    0.2430    4.6970 hc        1 MOL     -0.020118
    115 H51         1.5860    2.1780    5.8910 hc        1 MOL      0.054273
    116 H52         1.4840    3.3510    4.7120 hc        1 MOL      0.054273
    117 H53        -0.0440    2.7230    5.3220 hc        1 MOL      0.054273
    118 H54         2.1870   -0.7060    5.5000 hc        1 MOL      0.053914
    119 H55         0.8810    0.0620    6.4760 hc        1 MOL      0.053914
    120 H56         0.8230   -1.6750    5.8780 hc        1 MOL      0.053914
    121 N11        -1.5720    0.6320    1.3120 n         1 MOL     -0.763122
    122 C40        -2.2340   -0.6730    1.0430 c3        1 MOL     -0.007047
    123 C41        -3.5780   -0.5730    0.1770 c         1 MOL      0.448434
    124 O16        -4.1960   -1.6020   -0.1380 o         1 MOL     -0.503880
    125 C42        -2.5600   -1.3440    2.3890 c3        1 MOL      0.264333
    126 O17        -3.2670   -0.4880    3.2670 oh        1 MOL     -0.612758
    127 H57        -2.1750    1.3160    1.7500 hn        1 MOL      0.360081
    128 H58        -1.5120   -1.3220    0.5480 h1        1 MOL      0.084892
    129 H59        -1.6350   -1.6860    2.8590 h1        1 MOL      0.034705
    130 H60        -3.0570   -2.2860    2.1470 h1        1 MOL      0.034705
    131 H61        -3.3410   -0.9930    4.0760 ho        1 MOL      0.408885
    132 N12        -3.9730    0.6770   -0.1130 n         1 MOL     -0.322107
    133 C43        -5.1820    1.0380   -0.8680 c3        1 MOL      0.027018
    134 C44        -5.3890    0.2730   -2.1830 c         1 MOL      0.479020
    135 O18        -4.5850    0.4070   -3.0610 o         1 MOL     -0.562118
    136 C45        -5.0120    2.5660   -1.2400 c3        1 MOL     -0.321803
    137 H62        -3.3180    1.3830    0.1700 hn        1 MOL      0.287148
    138 H63        -6.0170    0.8600   -0.1840 h1        1 MOL      0.120870
    139 H64        -5.2990    3.1280   -0.3510 hc        1 MOL      0.113801
    140 H65        -3.9680    2.8410   -1.3930 hc        1 MOL      0.113801
    141 H66        -5.6170    2.7930   -2.1130 hc        1 MOL      0.113801
    142 N13        -6.5120   -0.4390   -2.3230 n         1 MOL     -0.334041
    143 C46        -7.5980   -0.7610   -1.3680 c3        1 MOL     -0.016578
    144 C47        -8.5500    0.4970   -1.4780 c         1 MOL      0.502835
    145 O19        -8.3760    1.3530   -2.3410 o         1 MOL     -0.516317
    146 C48        -8.2640   -2.0710   -1.9500 c3        1 MOL     -0.025990
    147 H67        -6.4690   -1.1560   -3.0250 hn        1 MOL      0.256947
    148 H68        -7.2780   -0.8920   -0.3320 h1        1 MOL      0.098809
    149 H69        -8.6400   -1.9650   -2.9740 hc        1 MOL      0.035529
    150 H70        -7.5010   -2.8360   -2.1060 hc        1 MOL      0.035529
    151 H71        -9.1020   -2.4090   -1.3410 hc        1 MOL      0.035529
    152 N14        -9.6470    0.5390   -0.7230 n         1 MOL     -0.369553
    153 C49       -10.0640   -0.4700    0.2910 c3        1 MOL     -0.248248
    154 C50       -10.1790    0.1620    1.6580 c         1 MOL      0.628721
    155 O20        -9.8770   -0.5090    2.6230 o         1 MOL     -0.580914
    156 C51       -11.4080   -1.1480   -0.2010 c3        1 MOL      0.108886
    157 C52       -12.5910   -0.2290   -0.2550 c3        1 MOL     -0.158630
    158 C53       -12.4620    0.8180   -1.3070 c         1 MOL      0.795218
    159 O21       -12.7980    0.5170   -2.4680 o         1 MOL     -0.706999
    160 O22       -12.1850    1.9770   -0.9540 o         1 MOL     -0.706999
    161 H72       -10.1560    1.4100   -0.7780 hn        1 MOL      0.236828
    162 H73        -9.2970   -1.2260    0.4110 h1        1 MOL      0.085827
    163 H74       -11.6900   -1.9260    0.5150 hc        1 MOL      0.005436
    164 H75       -11.2500   -1.5870   -1.1920 hc        1 MOL      0.005436
    165 H76       -12.6740    0.0710    0.7900 hc        1 MOL      0.008366
    166 H77       -13.5260   -0.7620   -0.4690 hc        1 MOL      0.008366
    167 N15       -10.4540    1.4310    1.7470 n         1 MOL     -0.273107
    168 C54       -10.3720    2.3480    2.9070 c3        1 MOL     -0.297358
    169 H78       -10.4720    3.3780    2.5630 h1        1 MOL      0.126627
    170 H79       -11.1740    2.1200    3.6090 h1        1 MOL      0.126627
    171 H80        -9.4090    2.2230    3.4030 h1        1 MOL      0.126627
    172 H81       -10.8250    1.8080    0.8860 hn        1 MOL      0.217935
    173 Ca1         2.7570    0.2680   -0.7800 Ca        1 MOL      1.764567
    174 O23         3.5180    2.6030   -2.2210 oh        1 MOL     -0.871370
    175 H82         4.3310    2.9620   -2.5610 ho        1 MOL      0.432943
    176 H83         2.8700    3.2960   -2.3740 ho        1 MOL      0.432943
    177 O24         0.5200    1.3250   -1.9460 oh        1 MOL     -0.871370
    178 H84        -0.2660    1.7640   -1.6270 ho        1 MOL      0.432943
    179 H85         0.5720    1.5750   -2.8700 ho        1 MOL      0.432943
@<TRIPOS>BOND
     1    1    2 1   
     2    1    4 1   
     3    1    5 1   
     4    1    6 1   
     5    2    3 2   
     6    2    7 1   
     7    7    8 1   
     8    7   15 1   
     9    8    9 1   
    10    8   11 1   
    11    8   16 1   
    12    9   10 2   
    13    9   19 1   
    14   11   12 1   
    15   11   17 1   
    16   11   18 1   
    17   12   13 1   
    18   12   14 1   
    19   19   20 1   
    20   19   28 1   
    21   20   21 1   
    22   20   23 1   
    23   20   29 1   
    24   21   22 2   
    25   21   41 1   
    26   23   24 1   
    27   23   30 1   
    28   23   31 1   
    29   24   25 1   
    30   24   32 1   
    31   24   33 1   
    32   25   26 1   
    33   25   34 1   
    34   25   35 1   
    35   26   27 1   
    36   26   36 1   
    37   26   37 1   
    38   27   38 1   
    39   27   39 1   
    40   27   40 1   
    41   41   42 1   
    42   41   49 1   
    43   42   43 1   
    44   42   45 1   
    45   42   50 1   
    46   43   44 2   
    47   43   53 1   
    48   45   46 1   
    49   45   51 1   
    50   45   52 1   
    51   46   47 1   
    52   46   48 1   
    53   53   54 1   
    54   53   57 1   
    55   54   55 1   
    56   54   58 1   
    57   54   59 1   
    58   55   56 2   
    59   55   60 1   
    60   60   61 1   
    61   60   68 1   
    62   61   62 1   
    63   61   64 1   
    64   61   69 1   
    65   62   63 2   
    66   62   74 1   
    67   64   65 1   
    68   64   70 1   
    69   64   71 1   
    70   65   66 1   
    71   65   67 2   
    72   66   72 1   
    73   66   73 1   
    74   74   75 1   
    75   74   78 1   
    76   75   76 1   
    77   75   79 1   
    78   75   80 1   
    79   76   77 2   
    80   76   81 1   
    81   81   82 1   
    82   81   93 1   
    83   82   83 1   
    84   82   85 1   
    85   82   94 1   
    86   83   84 2   
    87   83  102 1   
    88   85   86 1   
    89   85   95 1   
    90   85   96 1   
    91   86   87 ar  
    92   86   88 ar  
    93   87   89 ar  
    94   87   97 1   
    95   88   90 ar  
    96   88   98 1   
    97   89   91 ar  
    98   89   99 1   
    99   90   91 ar  
   100   90  100 1   
   101   91   92 1   
   102   92  101 1   
   103  102  103 1   
   104  102  110 1   
   105  103  104 1   
   106  103  106 1   
   107  103  111 1   
   108  104  105 2   
   109  104  121 1   
   110  106  107 1   
   111  106  108 1   
   112  106  112 1   
   113  107  109 1   
   114  107  113 1   
   115  107  114 1   
   116  108  115 1   
   117  108  116 1   
   118  108  117 1   
   119  109  118 1   
   120  109  119 1   
   121  109  120 1   
   122  121  122 1   
   123  121  127 1   
   124  122  123 1   
   125  122  125 1   
   126  122  128 1   
   127  123  124 2   
   128  123  132 1   
   129  125  126 1   
   130  125  129 1   
   131  125  130 1   
   132  126  131 1   
   133  132  133 1   
   134  132  137 1   
   135  133  134 1   
   136  133  136 1   
   137  133  138 1   
   138  134  135 2   
   139  134  142 1   
   140  136  139 1   
   141  136  140 1   
   142  136  141 1   
   143  142  143 1   
   144  142  147 1   
   145  143  144 1   
   146  143  146 1   
   147  143  148 1   
   148  144  145 2   
   149  144  152 1   
   150  146  149 1   
   151  146  150 1   
   152  146  151 1   
   153  152  153 1   
   154  152  161 1   
   155  153  154 1   
   156  153  156 1   
   157  153  162 1   
   158  154  155 2   
   159  154  167 1   
   160  156  157 1   
   161  156  163 1   
   162  156  164 1   
   163  157  158 1   
   164  157  165 1   
   165  157  166 1   
   166  158  159 1   
   167  158  160 1   
   168  167  168 1   
   169  167  172 1   
   170  168  169 1   
   171  168  170 1   
   172  168  171 1   
   173  174  175 1   
   174  174  176 1   
   175  177  178 1   
   176  177  179 1   
@<TRIPOS>SUBSTRUCTURE
     1 MOL         1 TEMP              0 ****  ****    0 ROOT
