@<TRIPOS>MOLECULE
MOL
  181   177     1     0     0
SMALL
resp


@<TRIPOS>ATOM
      1 C1        -10.2490    7.0320   -0.3100 c3        1 MOL     -0.328146
      2 C2         -9.4340    5.7710   -0.7300 c         1 MOL      0.683367
      3 O1         -8.3640    5.8690   -1.2680 o         1 MOL     -0.563069
      4 H1        -10.2320    7.1300    0.7750 hc        1 MOL      0.073736
      5 H2         -9.8040    7.9190   -0.7610 hc        1 MOL      0.073736
      6 H3        -11.2790    6.9280   -0.6490 hc        1 MOL      0.073736
      7 N1         -9.8760    4.5130   -0.6010 n         1 MOL     -0.445569
      8 C3        -11.2500    4.0410   -0.3200 c3        1 MOL      0.030100
      9 C4        -11.6940    2.9530   -1.2900 c         1 MOL      0.462097
     10 O2        -11.0000    2.7830   -2.2660 o         1 MOL     -0.431103
     11 C5        -11.2240    3.5670    1.1500 c3        1 MOL     -0.307069
     12 C6        -10.0910    2.5670    1.3500 c         1 MOL      0.646824
     13 O3        -10.3690    1.4360    1.0220 o         1 MOL     -0.653475
     14 O4         -8.9990    2.9580    1.7220 o         1 MOL     -0.653475
     15 H4         -9.1910    3.8500   -0.9490 hn        1 MOL      0.357436
     16 H5        -11.9720    4.8450   -0.4990 h1        1 MOL      0.084856
     17 H6        -12.1730    3.0860    1.3930 hc        1 MOL      0.042473
     18 H7        -10.9370    4.4520    1.7140 hc        1 MOL      0.042473
     19 N2        -12.6730    2.1090   -0.9730 n         1 MOL     -0.579267
     20 C7        -12.9190    0.8300   -1.6800 c3        1 MOL      0.360459
     21 C8        -11.6180   -0.0570   -2.0190 c         1 MOL      0.269246
     22 O5        -11.5210   -0.5780   -3.1350 o         1 MOL     -0.517029
     23 C9        -13.7960    1.2170   -2.8950 c3        1 MOL     -0.330221
     24 H8        -13.1400    2.1360   -0.0810 hn        1 MOL      0.328472
     25 H9        -13.5600    0.1880   -1.0650 h1        1 MOL     -0.017186
     26 H10       -14.1390    0.3420   -3.4550 hc        1 MOL      0.084085
     27 H11       -14.6850    1.7580   -2.5930 hc        1 MOL      0.084085
     28 H12       -13.1980    1.7600   -3.6250 hc        1 MOL      0.084085
     29 N3        -10.5990   -0.0940   -1.2250 n         1 MOL     -0.179348
     30 C10        -9.3490   -0.8260   -1.5080 c3        1 MOL      0.324573
     31 C11        -8.9630   -1.7340   -0.2750 c         1 MOL      0.311311
     32 O6         -9.3170   -1.4000    0.8360 o         1 MOL     -0.593604
     33 C12        -8.2040    0.0540   -2.1320 c3        1 MOL     -0.105959
     34 C13        -7.7170    1.2380   -1.3410 c         1 MOL      0.652098
     35 O7         -7.7750    1.1480   -0.0890 o         1 MOL     -0.647293
     36 O8         -7.4430    2.3500   -1.8750 o         1 MOL     -0.647293
     37 H13       -10.5110    0.5730   -0.4670 hn        1 MOL      0.085610
     38 H14        -9.5730   -1.5750   -2.2690 h1        1 MOL     -0.062010
     39 H15        -8.4800    0.3170   -3.1460 hc        1 MOL      0.018660
     40 H16        -7.3430   -0.6060   -2.1690 hc        1 MOL      0.018660
     41 N4         -8.2540   -2.8340   -0.5140 n         1 MOL     -0.146567
     42 C14        -7.4570   -3.6910    0.3640 c3        1 MOL     -0.449799
     43 C15        -6.3110   -2.9600    1.0520 c         1 MOL      0.638689
     44 O9         -6.4440   -1.8010    1.4470 o         1 MOL     -0.663257
     45 H17        -8.1940   -3.0640   -1.5020 hn        1 MOL      0.233009
     46 H18        -7.0750   -4.4300   -0.3330 h1        1 MOL      0.173359
     47 H19        -8.0670   -4.1730    1.1260 h1        1 MOL      0.173359
     48 N5         -5.1940   -3.6560    1.2220 n         1 MOL     -0.362910
     49 C16        -3.9100   -3.2040    1.6680 c3        1 MOL      0.033380
     50 C17        -2.8940   -3.7980    0.7730 c         1 MOL      0.452011
     51 O10        -2.8390   -5.0230    0.6300 o         1 MOL     -0.527421
     52 C18        -3.6570   -3.4390    3.1140 c3        1 MOL     -0.120726
     53 C19        -4.5730   -2.8190    4.1450 c         1 MOL      0.576587
     54 N6         -5.4050   -3.5740    4.8170 n         1 MOL     -0.834322
     55 O11        -4.5360   -1.5450    4.1140 o         1 MOL     -0.563392
     56 H20        -5.2520   -4.6420    1.0170 hn        1 MOL      0.243620
     57 H21        -3.8610   -2.1470    1.4030 h1        1 MOL      0.077137
     58 H22        -2.6390   -3.0420    3.2110 hc        1 MOL      0.051470
     59 H23        -3.6950   -4.5170    3.2600 hc        1 MOL      0.051470
     60 H24        -5.4400   -4.5550    4.6120 hn        1 MOL      0.380313
     61 H25        -5.8580   -3.1690    5.6210 hn        1 MOL      0.380313
     62 N7         -1.9380   -3.0300    0.2900 n         1 MOL     -0.287776
     63 C20        -0.7490   -3.5240   -0.4510 c3        1 MOL     -0.204202
     64 C21        -1.1200   -3.7760   -1.9400 c         1 MOL      0.680807
     65 O12        -2.2480   -3.6380   -2.4020 o         1 MOL     -0.560137
     66 H26        -1.9940   -2.0490    0.5070 hn        1 MOL      0.272815
     67 H27        -0.4300   -4.4420    0.0330 h1        1 MOL      0.139119
     68 H28         0.0300   -2.7640   -0.4330 h1        1 MOL      0.139119
     69 N8         -0.1650   -4.1580   -2.8060 n         1 MOL     -0.595836
     70 C22         1.2810   -4.5170   -2.5690 c3        1 MOL      0.099378
     71 C23         2.0330   -3.2720   -2.0320 c         1 MOL      0.377372
     72 O13         1.6990   -2.1830   -2.4220 o         1 MOL     -0.386049
     73 C24         1.9500   -5.1060   -3.9100 c3        1 MOL      0.336431
     74 C25         3.1100   -6.0110   -3.6390 c3        1 MOL     -0.371503
     75 O14         1.0390   -5.9300   -4.6210 oh        1 MOL     -0.630065
     76 H29        -0.5290   -4.3130   -3.7330 hn        1 MOL      0.344928
     77 H30         1.4100   -5.3410   -1.8720 h1        1 MOL      0.049077
     78 H31         2.2430   -4.3030   -4.5880 h1        1 MOL      0.056886
     79 H32         1.5790   -6.4760   -5.1980 ho        1 MOL      0.382310
     80 H33         2.7840   -6.9700   -3.2290 hc        1 MOL      0.087616
     81 H34         3.7100   -6.1760   -4.5420 hc        1 MOL      0.087616
     82 H35         3.9150   -5.6610   -2.9880 hc        1 MOL      0.087616
     83 N9          3.0690   -3.4890   -1.2040 n         1 MOL     -0.529248
     84 C26         3.9860   -2.5320   -0.5750 c3        1 MOL      0.334380
     85 C27         4.9100   -1.9010   -1.6260 c         1 MOL      0.532724
     86 O15         4.9770   -2.4060   -2.7510 o         1 MOL     -0.574526
     87 C28         4.7660   -3.1670    0.6270 c3        1 MOL      0.039300
     88 C29         5.8150   -4.3450    0.2680 c3        1 MOL     -0.144613
     89 C30         3.7980   -3.6470    1.6610 c3        1 MOL     -0.208399
     90 C31         7.1160   -3.8500   -0.2860 c3        1 MOL      0.024121
     91 H36         3.1630   -4.4750   -1.0010 hn        1 MOL      0.228059
     92 H37         3.2710   -1.7730   -0.2290 h1        1 MOL     -0.035785
     93 H38         5.2920   -2.3310    1.0970 hc        1 MOL      0.043201
     94 H39         5.3020   -5.0390   -0.4030 hc        1 MOL      0.044818
     95 H40         6.1190   -4.8100    1.1970 hc        1 MOL      0.044818
     96 H41         4.2760   -4.0800    2.5420 hc        1 MOL      0.035070
     97 H42         3.0580   -2.8850    1.9170 hc        1 MOL      0.035070
     98 H43         3.2640   -4.5320    1.3120 hc        1 MOL      0.035070
     99 H44         7.7320   -4.7390   -0.3260 hc        1 MOL     -0.020573
    100 H45         6.9600   -3.3470   -1.2420 hc        1 MOL     -0.020573
    101 H46         7.5820   -3.1540    0.4060 hc        1 MOL     -0.020573
    102 N10         5.5650   -0.7170   -1.4530 n         1 MOL     -0.076267
    103 C32         5.4820    0.0660   -0.2020 c3        1 MOL     -0.137659
    104 C33         6.7860    0.3100    0.4870 c         1 MOL      0.509140
    105 O16         6.7950    1.0030    1.4610 o         1 MOL     -0.502682
    106 C34         4.7090    1.3880   -0.4770 c3        1 MOL     -0.172765
    107 C35         3.2720    1.2650   -0.9230 c         1 MOL      0.693798
    108 O17         2.9130    1.5590   -2.0770 o         1 MOL     -0.658009
    109 O18         2.4310    0.9060   -0.0130 o         1 MOL     -0.658009
    110 H47         6.0310   -0.2410   -2.2140 hn        1 MOL      0.152557
    111 H48         4.8900   -0.3700    0.6010 h1        1 MOL      0.068545
    112 H49         5.2570    1.9340   -1.2400 hc        1 MOL      0.036378
    113 H50         4.7590    2.0690    0.3820 hc        1 MOL      0.036378
    114 N11         7.8840   -0.2090   -0.0850 n         1 MOL     -0.527274
    115 C36         9.2010   -0.1570    0.5450 c3        1 MOL      0.388495
    116 C37        10.3920    0.1220   -0.3920 c         1 MOL      0.357790
    117 O19        10.4740   -0.6510   -1.3560 o         1 MOL     -0.513639
    118 C38         9.4380   -1.3520    1.4710 c3        1 MOL     -0.397849
    119 C39        10.6580   -1.3240    2.3120 ca        1 MOL      0.155912
    120 C40        11.8880   -1.7810    1.8080 ca        1 MOL     -0.165862
    121 C41        10.5950   -0.8120    3.5670 ca        1 MOL     -0.165862
    122 C42        13.1130   -1.5480    2.4980 ca        1 MOL     -0.159498
    123 C43        11.7470   -0.6130    4.3040 ca        1 MOL     -0.159498
    124 C44        13.0350   -0.9540    3.7630 ca        1 MOL     -0.071295
    125 H51         7.8390   -0.8620   -0.8490 hn        1 MOL      0.270609
    126 H52         9.1080    0.7370    1.1550 h1        1 MOL     -0.012195
    127 H53         9.4800   -2.1710    0.7590 hc        1 MOL      0.131061
    128 H54         8.6320   -1.4340    2.2090 hc        1 MOL      0.131061
    129 H55        11.7770   -2.0610    0.7700 ha        1 MOL      0.127594
    130 H56         9.6970   -0.3640    3.9620 ha        1 MOL      0.127594
    131 H57        14.1270   -1.7580    2.1750 ha        1 MOL      0.119259
    132 H58        11.6670   -0.0760    5.2380 ha        1 MOL      0.119259
    133 H59        13.9090   -0.7800    4.3760 ha        1 MOL      0.087331
    134 N12        11.2460    1.1400   -0.1120 n         1 MOL     -0.038814
    135 C45        11.3280    1.9250    1.0620 c3        1 MOL      0.102191
    136 C46        10.4600    3.1430    1.0750 c         1 MOL      0.339388
    137 O20        10.0070    3.5550    2.1370 o         1 MOL     -0.544593
    138 C47        12.7790    2.2320    1.3350 c3        1 MOL     -0.097761
    139 C48        13.5940    1.3310    0.4670 c3        1 MOL     -0.071038
    140 C49        12.6160    1.1990   -0.7280 c3        1 MOL     -0.242823
    141 H60        10.9450    1.3550    1.9030 h1        1 MOL      0.055269
    142 H61        12.9820    3.2690    1.0840 hc        1 MOL      0.046125
    143 H62        13.0640    1.9670    2.3590 hc        1 MOL      0.046125
    144 H63        14.4380    1.8930    0.0670 hc        1 MOL      0.046812
    145 H64        13.7940    0.4100    1.0070 hc        1 MOL      0.046812
    146 H65        12.6700    2.0680   -1.3940 h1        1 MOL      0.124206
    147 H66        12.9350    0.3620   -1.3430 h1        1 MOL      0.124206
    148 N13         9.9990    3.5580   -0.0880 n         1 MOL     -0.294747
    149 C50         8.7410    4.2870   -0.2910 c3        1 MOL      0.196389
    150 C51         8.9020    5.7350   -0.8100 c         1 MOL      0.307780
    151 O21         9.2770    6.0900   -1.9240 o         1 MOL     -0.544189
    152 C52         7.7670    3.5420   -1.1670 c3        1 MOL     -0.055873
    153 C53         8.2300    3.2670   -2.6270 c3        1 MOL      0.104828
    154 C54         7.0280    2.6050   -3.3650 c         1 MOL      0.549659
    155 O22         6.1530    3.2870   -3.9560 o         1 MOL     -0.635627
    156 O23         6.9080    1.3560   -3.2860 o         1 MOL     -0.635627
    157 H67        10.4750    3.2360   -0.9150 hn        1 MOL      0.183401
    158 H68         8.1840    4.2290    0.6440 h1        1 MOL      0.115324
    159 H69         6.8500    4.1260   -1.2780 hc        1 MOL      0.039186
    160 H70         7.4090    2.6080   -0.7440 hc        1 MOL      0.039186
    161 H71         9.0460    2.5470   -2.6170 hc        1 MOL     -0.067654
    162 H72         8.5370    4.1260   -3.2110 hc        1 MOL     -0.067654
    163 N14         8.6200    6.7580   -0.0660 n         1 MOL     -0.247571
    164 C55         8.1700    6.7100    1.3070 c3        1 MOL     -0.015929
    165 H73         7.1990    7.1990    1.3870 h1        1 MOL      0.023435
    166 H74         8.0810    5.6710    1.6250 h1        1 MOL      0.023435
    167 H75         8.8900    7.2250    1.9430 h1        1 MOL      0.023435
    168 H76         8.7090    7.6680   -0.4900 hn        1 MOL      0.262246
    169 Ca1        -7.9840    0.3690    2.2810 Ca        1 MOL      1.771328
    170 O24       -10.0340    0.3820    3.9440 oh        1 MOL     -0.851193
    171 H77       -10.4730    1.2230    3.8310 ho        1 MOL      0.423033
    172 H78       -10.7190   -0.2730    3.8190 ho        1 MOL      0.423033
    173 O25        -7.0450    2.0800    4.1870 oh        1 MOL     -0.851193
    174 H79        -7.5200    2.7700    4.6430 ho        1 MOL      0.423033
    175 H80        -6.1790    2.0690    4.5990 ho        1 MOL      0.423033
    176 O26        -5.4470    1.1260    1.5430 oh        1 MOL     -0.851193
    177 H81        -5.3060    0.6640    0.7130 ho        1 MOL      0.423033
    178 H82        -4.5910    1.0890    1.9870 ho        1 MOL      0.423033
    179 O27        -7.5370   -1.4390    4.2170 oh        1 MOL     -0.851193
    180 H83        -6.6550   -1.6840    3.9340 ho        1 MOL      0.423033
    181 H84        -7.8130   -2.1630    4.7730 ho        1 MOL      0.423033
@<TRIPOS>BOND
     1    1    2 1   
     2    1    4 1   
     3    1    5 1   
     4    1    6 1   
     5    2    3 2   
     6    2    7 1   
     7    7    8 1   
     8    7   15 1   
     9    8    9 1   
    10    8   11 1   
    11    8   16 1   
    12    9   10 2   
    13    9   19 1   
    14   11   12 1   
    15   11   17 1   
    16   11   18 1   
    17   12   13 1   
    18   12   14 1   
    19   19   20 1   
    20   19   24 1   
    21   20   21 1   
    22   20   23 1   
    23   20   25 1   
    24   21   22 2   
    25   21   29 1   
    26   23   26 1   
    27   23   27 1   
    28   23   28 1   
    29   29   30 1   
    30   29   37 1   
    31   30   31 1   
    32   30   33 1   
    33   30   38 1   
    34   31   32 2   
    35   31   41 1   
    36   33   34 1   
    37   33   39 1   
    38   33   40 1   
    39   34   35 1   
    40   34   36 1   
    41   41   42 1   
    42   41   45 1   
    43   42   43 1   
    44   42   46 1   
    45   42   47 1   
    46   43   44 2   
    47   43   48 1   
    48   48   49 1   
    49   48   56 1   
    50   49   50 1   
    51   49   52 1   
    52   49   57 1   
    53   50   51 2   
    54   50   62 1   
    55   52   53 1   
    56   52   58 1   
    57   52   59 1   
    58   53   54 1   
    59   53   55 2   
    60   54   60 1   
    61   54   61 1   
    62   62   63 1   
    63   62   66 1   
    64   63   64 1   
    65   63   67 1   
    66   63   68 1   
    67   64   65 2   
    68   64   69 1   
    69   69   70 1   
    70   69   76 1   
    71   70   71 1   
    72   70   73 1   
    73   70   77 1   
    74   71   72 2   
    75   71   83 1   
    76   73   74 1   
    77   73   75 1   
    78   73   78 1   
    79   74   80 1   
    80   74   81 1   
    81   74   82 1   
    82   75   79 1   
    83   83   84 1   
    84   83   91 1   
    85   84   85 1   
    86   84   87 1   
    87   84   92 1   
    88   85   86 2   
    89   85  102 1   
    90   87   88 1   
    91   87   89 1   
    92   87   93 1   
    93   88   90 1   
    94   88   94 1   
    95   88   95 1   
    96   89   96 1   
    97   89   97 1   
    98   89   98 1   
    99   90   99 1   
   100   90  100 1   
   101   90  101 1   
   102  102  103 1   
   103  102  110 1   
   104  103  104 1   
   105  103  106 1   
   106  103  111 1   
   107  104  105 2   
   108  104  114 1   
   109  106  107 1   
   110  106  112 1   
   111  106  113 1   
   112  107  108 1   
   113  107  109 1   
   114  114  115 1   
   115  114  125 1   
   116  115  116 1   
   117  115  118 1   
   118  115  126 1   
   119  116  117 2   
   120  116  134 1   
   121  118  119 1   
   122  118  127 1   
   123  118  128 1   
   124  119  120 ar  
   125  119  121 ar  
   126  120  122 ar  
   127  120  129 1   
   128  121  123 ar  
   129  121  130 1   
   130  122  124 ar  
   131  122  131 1   
   132  123  124 ar  
   133  123  132 1   
   134  124  133 1   
   135  134  135 1   
   136  134  140 1   
   137  135  136 1   
   138  135  138 1   
   139  135  141 1   
   140  136  137 2   
   141  136  148 1   
   142  138  139 1   
   143  138  142 1   
   144  138  143 1   
   145  139  140 1   
   146  139  144 1   
   147  139  145 1   
   148  140  146 1   
   149  140  147 1   
   150  148  149 1   
   151  148  157 1   
   152  149  150 1   
   153  149  152 1   
   154  149  158 1   
   155  150  151 2   
   156  150  163 1   
   157  152  153 1   
   158  152  159 1   
   159  152  160 1   
   160  153  154 1   
   161  153  161 1   
   162  153  162 1   
   163  154  155 1   
   164  154  156 1   
   165  163  164 1   
   166  163  168 1   
   167  164  165 1   
   168  164  166 1   
   169  164  167 1   
   170  170  171 1   
   171  170  172 1   
   172  173  174 1   
   173  173  175 1   
   174  176  177 1   
   175  176  178 1   
   176  179  180 1   
   177  179  181 1   
@<TRIPOS>SUBSTRUCTURE
     1 MOL         1 TEMP              0 ****  ****    0 ROOT
