@<TRIPOS>MOLECULE
MOL
  195   189     1     0     0
SMALL
resp


@<TRIPOS>ATOM
      1 C1         -4.1000   -1.1510    2.5330 c3        1 MOL     -0.005082
      2 C2         -3.1860   -2.1370    1.7730 c         1 MOL      0.461457
      3 O1         -2.0750   -1.7430    1.4570 o         1 MOL     -0.462886
      4 H1         -5.0240   -1.0080    1.9740 hc        1 MOL     -0.007056
      5 H2         -4.3310   -1.5560    3.5180 hc        1 MOL     -0.007056
      6 H3         -3.5900   -0.1930    2.6430 hc        1 MOL     -0.007056
      7 N1         -3.7090   -3.3340    1.5040 n         1 MOL     -0.245614
      8 C3         -3.0410   -4.3130    0.5380 c3        1 MOL      0.165776
      9 C4         -1.5030   -4.5830    0.7810 c         1 MOL      0.494558
     10 O2         -0.6620   -4.6420   -0.1830 o         1 MOL     -0.517566
     11 C5         -3.4000   -4.0020   -0.9040 c3        1 MOL     -0.556971
     12 C6         -4.9350   -3.8460   -1.1270 c         1 MOL      0.880831
     13 O3         -5.4370   -3.7700   -2.2830 o         1 MOL     -0.749784
     14 O4         -5.7640   -3.8010   -0.1760 o         1 MOL     -0.749784
     15 H4         -4.7170   -3.4260    1.5050 hn        1 MOL      0.105079
     16 H5         -3.4930   -5.2430    0.8700 h1        1 MOL      0.050423
     17 H6         -3.2650   -4.8890   -1.5180 hc        1 MOL      0.170320
     18 H7         -2.8710   -3.1210   -1.2520 hc        1 MOL      0.170320
     19 N2         -1.1620   -4.5610    2.0510 n         1 MOL     -0.475973
     20 C7          0.1910   -4.6570    2.5390 c3        1 MOL     -0.041457
     21 C8          0.8470   -5.9980    2.1630 c         1 MOL      0.536536
     22 O5          0.2970   -7.1280    2.2790 o         1 MOL     -0.592817
     23 C9          0.2610   -4.3850    4.0950 c3        1 MOL      0.202423
     24 C10        -0.7770   -5.2610    4.9060 c3        1 MOL      0.079051
     25 C11         0.1470   -2.8500    4.2650 c3        1 MOL     -0.224164
     26 C12        -0.2380   -5.3020    6.3030 c3        1 MOL     -0.102788
     27 H8         -1.8890   -4.4220    2.7300 hn        1 MOL      0.167197
     28 H9          0.7310   -3.8560    2.0300 h1        1 MOL      0.236147
     29 H10         1.2420   -4.7120    4.4370 hc        1 MOL      0.003225
     30 H11        -0.7620   -6.2700    4.5020 hc        1 MOL     -0.005898
     31 H12        -1.7880   -4.8530    4.8800 hc        1 MOL     -0.005898
     32 H13         0.2290   -2.6220    5.3280 hc        1 MOL      0.048583
     33 H14         0.9000   -2.3700    3.6560 hc        1 MOL      0.048583
     34 H15        -0.8000   -2.5640    3.8130 hc        1 MOL      0.048583
     35 H16        -0.6460   -4.4300    6.8150 hc        1 MOL      0.008630
     36 H17        -0.7410   -6.1260    6.8250 hc        1 MOL      0.008630
     37 H18         0.8330   -5.3470    6.4840 hc        1 MOL      0.008630
     38 N3          2.1310   -5.9910    1.8590 n         1 MOL     -0.485209
     39 C13         3.0120   -4.8530    1.3280 c3        1 MOL     -0.158318
     40 C14         3.9640   -5.4040    0.2030 c         1 MOL      0.625669
     41 O6          4.9720   -6.0810    0.3990 o         1 MOL     -0.523117
     42 C15         3.9370   -4.4060    2.4350 c3        1 MOL     -0.175226
     43 C16         4.8290   -3.2360    2.1180 c         1 MOL      0.695282
     44 O7          5.8750   -3.2950    2.7980 o         1 MOL     -0.696781
     45 O8          4.6110   -2.3940    1.1780 o         1 MOL     -0.696781
     46 H19         2.4790   -6.9350    1.7150 hn        1 MOL      0.314214
     47 H20         2.4470   -4.0580    0.8420 h1        1 MOL      0.069403
     48 H21         4.5260   -5.2300    2.8440 hc        1 MOL      0.063210
     49 H22         3.2080   -4.0220    3.1460 hc        1 MOL      0.063210
     50 N4          3.5630   -5.1230   -1.0420 n         1 MOL     -0.462700
     51 C17         4.2520   -5.3350   -2.3510 c3        1 MOL     -0.150952
     52 C18         5.4820   -4.4620   -2.6530 c         1 MOL      0.617429
     53 O9          6.2440   -4.9180   -3.5180 o         1 MOL     -0.607591
     54 H23         2.6670   -4.6980   -1.2050 hn        1 MOL      0.340761
     55 H24         3.4750   -5.2110   -3.0970 h1        1 MOL      0.095874
     56 H25         4.4930   -6.3950   -2.4480 h1        1 MOL      0.095874
     57 N5          5.7890   -3.3900   -1.9570 n         1 MOL     -0.390427
     58 C19         6.7840   -2.4400   -2.5320 c3        1 MOL      0.011066
     59 C20         7.7400   -1.7550   -1.6520 c         1 MOL      0.439953
     60 O10         8.7310   -1.2550   -2.2040 o         1 MOL     -0.564332
     61 C21         5.9770   -1.4050   -3.3060 c3        1 MOL     -0.265956
     62 C22         4.8680   -0.7610   -2.5050 c         1 MOL      0.729805
     63 O11         3.7590   -1.3160   -2.4570 o         1 MOL     -0.671465
     64 O12         5.0660    0.3550   -1.9710 o         1 MOL     -0.671465
     65 H26         5.2110   -3.0690   -1.1930 hn        1 MOL      0.265861
     66 H27         7.3360   -3.0180   -3.2740 h1        1 MOL      0.117858
     67 H28         5.5400   -1.8480   -4.2020 hc        1 MOL      0.067317
     68 H29         6.6210   -0.6650   -3.7850 hc        1 MOL      0.067317
     69 N6          7.4790   -1.6050   -0.3510 n         1 MOL     -0.273670
     70 C23         8.2120   -0.7750    0.6150 c3        1 MOL      0.003630
     71 C24         8.3060    0.7040    0.3130 c         1 MOL      0.468717
     72 O13         9.0050    1.4120    1.0500 o         1 MOL     -0.600034
     73 H30         6.6570   -2.0910   -0.0060 hn        1 MOL      0.254592
     74 H31         9.1840   -1.1830    0.9010 h1        1 MOL      0.070284
     75 H32         7.6290   -0.8230    1.5410 h1        1 MOL      0.070284
     76 N7          7.7180    1.1570   -0.7470 n         1 MOL     -0.206904
     77 C25         7.6750    2.6220   -1.2030 c3        1 MOL      0.046912
     78 C26         7.2090    3.6460   -0.1310 c         1 MOL      0.378778
     79 O14         7.5310    4.8670   -0.1950 o         1 MOL     -0.521126
     80 C27         8.9370    3.0140   -2.0380 c3        1 MOL      0.040836
     81 C28         8.7860    2.4880   -3.5130 c3        1 MOL     -0.132770
     82 C29        10.0730    1.8800   -4.0220 c         1 MOL      0.671812
     83 N8         10.2840    0.6330   -3.7460 n         1 MOL     -0.751073
     84 O15        10.8370    2.4730   -4.7050 o         1 MOL     -0.632432
     85 H33         7.2190    0.4730   -1.3000 hn        1 MOL      0.120201
     86 H34         6.8410    2.5650   -1.8940 h1        1 MOL      0.085939
     87 H35         9.8460    2.5770   -1.6440 hc        1 MOL      0.017754
     88 H36         9.1170    4.0950   -2.0940 hc        1 MOL      0.017754
     89 H37         8.5190    3.2490   -4.2490 hc        1 MOL      0.034561
     90 H38         7.9760    1.7740   -3.6560 hc        1 MOL      0.034561
     91 H39         9.7320    0.1840   -3.0320 hn        1 MOL      0.335957
     92 H40        11.1360    0.1930   -4.0640 hn        1 MOL      0.335957
     93 N9          6.4260    3.2520    0.8960 n         1 MOL     -0.111814
     94 C30         5.8120    4.0500    1.8900 c3        1 MOL     -0.293703
     95 C31         4.2590    3.8980    2.1200 c         1 MOL      0.611033
     96 O16         3.7260    4.5630    2.9880 o         1 MOL     -0.570054
     97 C32         6.4650    3.7780    3.2400 c3        1 MOL      0.335921
     98 C33         6.1740    2.3440    3.7990 c3        1 MOL     -0.309717
     99 C34         7.9890    4.0310    3.2460 c3        1 MOL     -0.309717
    100 H41         6.2580    2.2640    1.0290 hn        1 MOL      0.200041
    101 H42         6.0600    5.0940    1.6690 h1        1 MOL      0.130271
    102 H43         6.0070    4.4310    3.9940 hc        1 MOL     -0.043891
    103 H44         5.1040    2.1800    3.9150 hc        1 MOL      0.067187
    104 H45         6.6750    1.7320    3.0520 hc        1 MOL      0.067187
    105 H46         6.7250    2.1030    4.7100 hc        1 MOL      0.067187
    106 H47         8.3710    4.0530    4.2660 hc        1 MOL      0.067187
    107 H48         8.5530    3.2570    2.7290 hc        1 MOL      0.067187
    108 H49         8.2160    5.0310    2.8820 hc        1 MOL      0.067187
    109 N10         3.5900    3.1110    1.3000 n         1 MOL     -0.405009
    110 C35         2.1650    2.7520    1.4320 c3        1 MOL      0.133541
    111 C36         1.2090    3.0970    0.2050 c         1 MOL      0.477212
    112 O17         1.6250    3.1970   -0.9750 o         1 MOL     -0.513310
    113 C37         2.1730    1.2610    1.6070 c3        1 MOL      0.046121
    114 C38         0.8000    0.7030    1.8970 c         1 MOL      0.466886
    115 N11         0.5510   -0.5080    1.4940 n         1 MOL     -0.581098
    116 O18         0.0050    1.3090    2.5960 o         1 MOL     -0.556702
    117 H50         4.1150    2.6610    0.5630 hn        1 MOL      0.205448
    118 H51         1.8130    3.1970    2.3660 h1        1 MOL      0.044590
    119 H52         2.9350    0.9210    2.3050 hc        1 MOL      0.030906
    120 H53         2.5250    0.9270    0.6220 hc        1 MOL      0.030906
    121 H54         1.1750   -1.0740    0.9460 hn        1 MOL      0.298406
    122 H55        -0.4020   -0.7860    1.6740 hn        1 MOL      0.298406
    123 N12        -0.1050    3.2190    0.5040 n         1 MOL     -0.559158
    124 C39        -1.2180    3.1970   -0.4770 c3        1 MOL      0.366294
    125 C40        -2.4330    3.9800    0.1280 c         1 MOL      0.422816
    126 O19        -2.6490    3.8200    1.3140 o         1 MOL     -0.520420
    127 C41        -1.5240    1.6580   -0.6860 c3        1 MOL     -0.252842
    128 C42        -2.6400    1.3260   -1.6840 ca        1 MOL     -0.019971
    129 C43        -3.2750    0.1210   -1.4190 ca        1 MOL     -0.023165
    130 C44        -2.9180    2.0300   -2.8300 ca        1 MOL     -0.023165
    131 C45        -4.2610   -0.3050   -2.2620 ca        1 MOL     -0.257838
    132 C46        -3.9310    1.6610   -3.6630 ca        1 MOL     -0.257838
    133 C47        -4.6070    0.4550   -3.3820 ca        1 MOL      0.199319
    134 O20        -5.7040    0.0390   -4.0650 oh        1 MOL     -0.539214
    135 H56        -0.3550    3.0070    1.4570 hn        1 MOL      0.277203
    136 H57        -0.8870    3.7290   -1.3740 h1        1 MOL      0.005389
    137 H58        -1.9320    1.3210    0.2700 hc        1 MOL      0.116945
    138 H59        -0.5780    1.2090   -0.9990 hc        1 MOL      0.116945
    139 H60        -3.1090   -0.4140   -0.4950 ha        1 MOL      0.089660
    140 H61        -2.2070    2.7870   -3.1040 ha        1 MOL      0.089660
    141 H62        -4.8540   -1.1660   -1.9630 ha        1 MOL      0.133318
    142 H63        -4.1970    2.2880   -4.4930 ha        1 MOL      0.133318
    143 H64        -6.1730   -0.5900   -3.5110 ho        1 MOL      0.533367
    144 N13        -3.1740    4.6450   -0.7180 n         1 MOL     -0.536269
    145 C48        -4.3160    5.5290   -0.4800 c3        1 MOL      0.089791
    146 C49        -5.6050    5.1690   -1.2920 c         1 MOL      0.612873
    147 O21        -5.8480    5.6270   -2.3930 o         1 MOL     -0.571933
    148 C50        -3.8940    7.0090   -0.6900 c3        1 MOL      0.044086
    149 C51        -2.8910    7.4700    0.3160 c3        1 MOL     -0.147428
    150 C52        -2.8160    9.0160    0.3170 c         1 MOL      0.665695
    151 O22        -2.1410    9.5140   -0.5740 o         1 MOL     -0.662143
    152 O23        -3.4280    9.7610    1.1830 o         1 MOL     -0.662143
    153 H65        -2.7840    4.4900   -1.6420 hn        1 MOL      0.298884
    154 H66        -4.6010    5.4730    0.5730 h1        1 MOL      0.152362
    155 H67        -4.7540    7.6800   -0.6650 hc        1 MOL      0.013975
    156 H68        -3.4660    7.0100   -1.6980 hc        1 MOL      0.013975
    157 H69        -1.8970    7.1310    0.0360 hc        1 MOL      0.029435
    158 H70        -3.1730    7.2390    1.3430 hc        1 MOL      0.029435
    159 N14        -6.5300    4.3620   -0.7260 n         1 MOL     -0.505440
    160 C53        -6.4660    3.6560    0.5640 c3        1 MOL     -0.431701
    161 C54        -6.7570    4.6070    1.7050 c         1 MOL      0.425146
    162 O24        -7.5720    5.5170    1.5000 o         1 MOL     -0.483871
    163 C55        -7.5280    2.4830    0.6020 c3        1 MOL      0.807375
    164 C56        -7.0430    1.3190   -0.1500 c3        1 MOL     -0.147784
    165 C57        -8.1110    0.2220   -0.3390 c         1 MOL      0.510178
    166 O25        -9.2250    0.5580   -0.6700 o         1 MOL     -0.628828
    167 O26        -7.8170   -0.9720   -0.3640 o         1 MOL     -0.628828
    168 H71        -7.4590    4.4220   -1.1090 hn        1 MOL      0.327202
    169 H72        -5.4400    3.3110    0.6840 h1        1 MOL      0.189372
    170 H73        -8.5440    2.7500    0.3100 hc        1 MOL     -0.175595
    171 H74        -7.6360    2.2190    1.6500 hc        1 MOL     -0.175595
    172 H75        -6.2260    0.8880    0.4410 hc        1 MOL     -0.009822
    173 H76        -6.6960    1.6440   -1.1280 hc        1 MOL     -0.009822
    174 N15        -6.0430    4.5900    2.8850 n         1 MOL     -0.275696
    175 C58        -6.1300    5.5220    4.0540 c3        1 MOL     -0.333144
    176 H77        -7.1770    5.7340    4.2720 h1        1 MOL      0.134794
    177 H78        -5.6650    5.0570    4.9250 h1        1 MOL      0.134794
    178 H79        -5.6140    6.4510    3.8180 h1        1 MOL      0.134794
    179 H80        -5.3270    3.8880    3.0010 hn        1 MOL      0.254358
    180 Ca1        -8.0830   -3.3900   -1.1930 Ca        1 MOL      1.605127
    181 O27        -7.5440   -5.9560   -1.4550 oh        1 MOL     -0.778814
    182 O28        -8.0290   -1.5030   -3.2910 oh        1 MOL     -0.778814
    183 H81        -6.7650   -6.4770   -1.3030 ho        1 MOL      0.359061
    184 H82        -7.9340   -1.6890   -4.2250 ho        1 MOL      0.359061
    185 H83        -8.2700   -6.5730   -1.4200 ho        1 MOL      0.359061
    186 H84        -8.3930   -0.6210   -3.2510 ho        1 MOL      0.359061
    187 O29       -10.3690   -1.8460   -0.9190 oh        1 MOL     -0.778814
    188 H85        -9.9920   -0.9700   -0.8490 ho        1 MOL      0.359061
    189 H86       -10.7470   -2.0050   -0.0540 ho        1 MOL      0.359061
    190 O30       -10.0890   -5.2310   -0.7160 oh        1 MOL     -0.778814
    191 H87       -10.7720   -5.1090   -1.3640 ho        1 MOL      0.359061
    192 H88        -9.7120   -6.0930   -0.9080 ho        1 MOL      0.359061
    193 O31        -8.5920   -4.3280   -3.6130 oh        1 MOL     -0.778814
    194 H89        -7.9720   -5.0010   -3.9070 ho        1 MOL      0.359061
    195 H90        -9.3210   -4.3860   -4.2290 ho        1 MOL      0.359061
@<TRIPOS>BOND
     1    1    2 1   
     2    1    4 1   
     3    1    5 1   
     4    1    6 1   
     5    2    3 2   
     6    2    7 1   
     7    7    8 1   
     8    7   15 1   
     9    8    9 1   
    10    8   11 1   
    11    8   16 1   
    12    9   10 2   
    13    9   19 1   
    14   11   12 1   
    15   11   17 1   
    16   11   18 1   
    17   12   13 1   
    18   12   14 1   
    19   19   20 1   
    20   19   27 1   
    21   20   21 1   
    22   20   23 1   
    23   20   28 1   
    24   21   22 2   
    25   21   38 1   
    26   23   24 1   
    27   23   25 1   
    28   23   29 1   
    29   24   26 1   
    30   24   30 1   
    31   24   31 1   
    32   25   32 1   
    33   25   33 1   
    34   25   34 1   
    35   26   35 1   
    36   26   36 1   
    37   26   37 1   
    38   38   39 1   
    39   38   46 1   
    40   39   40 1   
    41   39   42 1   
    42   39   47 1   
    43   40   41 2   
    44   40   50 1   
    45   42   43 1   
    46   42   48 1   
    47   42   49 1   
    48   43   44 1   
    49   43   45 1   
    50   50   51 1   
    51   50   54 1   
    52   51   52 1   
    53   51   55 1   
    54   51   56 1   
    55   52   53 2   
    56   52   57 1   
    57   57   58 1   
    58   57   65 1   
    59   58   59 1   
    60   58   61 1   
    61   58   66 1   
    62   59   60 2   
    63   59   69 1   
    64   61   62 1   
    65   61   67 1   
    66   61   68 1   
    67   62   63 1   
    68   62   64 1   
    69   69   70 1   
    70   69   73 1   
    71   70   71 1   
    72   70   74 1   
    73   70   75 1   
    74   71   72 2   
    75   71   76 1   
    76   76   77 1   
    77   76   85 1   
    78   77   78 1   
    79   77   80 1   
    80   77   86 1   
    81   78   79 2   
    82   78   93 1   
    83   80   81 1   
    84   80   87 1   
    85   80   88 1   
    86   81   82 1   
    87   81   89 1   
    88   81   90 1   
    89   82   83 1   
    90   82   84 2   
    91   83   91 1   
    92   83   92 1   
    93   93   94 1   
    94   93  100 1   
    95   94   95 1   
    96   94   97 1   
    97   94  101 1   
    98   95   96 2   
    99   95  109 1   
   100   97   98 1   
   101   97   99 1   
   102   97  102 1   
   103   98  103 1   
   104   98  104 1   
   105   98  105 1   
   106   99  106 1   
   107   99  107 1   
   108   99  108 1   
   109  109  110 1   
   110  109  117 1   
   111  110  111 1   
   112  110  113 1   
   113  110  118 1   
   114  111  112 2   
   115  111  123 1   
   116  113  114 1   
   117  113  119 1   
   118  113  120 1   
   119  114  115 1   
   120  114  116 2   
   121  115  121 1   
   122  115  122 1   
   123  123  124 1   
   124  123  135 1   
   125  124  125 1   
   126  124  127 1   
   127  124  136 1   
   128  125  126 2   
   129  125  144 1   
   130  127  128 1   
   131  127  137 1   
   132  127  138 1   
   133  128  129 ar  
   134  128  130 ar  
   135  129  131 ar  
   136  129  139 1   
   137  130  132 ar  
   138  130  140 1   
   139  131  133 ar  
   140  131  141 1   
   141  132  133 ar  
   142  132  142 1   
   143  133  134 1   
   144  134  143 1   
   145  144  145 1   
   146  144  153 1   
   147  145  146 1   
   148  145  148 1   
   149  145  154 1   
   150  146  147 2   
   151  146  159 1   
   152  148  149 1   
   153  148  155 1   
   154  148  156 1   
   155  149  150 1   
   156  149  157 1   
   157  149  158 1   
   158  150  151 1   
   159  150  152 1   
   160  159  160 1   
   161  159  168 1   
   162  160  161 1   
   163  160  163 1   
   164  160  169 1   
   165  161  162 2   
   166  161  174 1   
   167  163  164 1   
   168  163  170 1   
   169  163  171 1   
   170  164  165 1   
   171  164  172 1   
   172  164  173 1   
   173  165  166 1   
   174  165  167 1   
   175  174  175 1   
   176  174  179 1   
   177  175  176 1   
   178  175  177 1   
   179  175  178 1   
   180  181  183 1   
   181  181  185 1   
   182  182  184 1   
   183  182  186 1   
   184  187  188 1   
   185  187  189 1   
   186  190  191 1   
   187  190  192 1   
   188  193  194 1   
   189  193  195 1   
@<TRIPOS>SUBSTRUCTURE
     1 MOL         1 TEMP              0 ****  ****    0 ROOT
