@<TRIPOS>MOLECULE
MOL
  178   175     1     0     0
SMALL
resp


@<TRIPOS>ATOM
      1 C1          1.9780   -1.7520    5.4280 c3        1 MOL     -0.268837
      2 C2          3.1400   -1.4500    4.4470 c         1 MOL      0.581712
      3 O1          3.0780   -0.5320    3.6390 o         1 MOL     -0.519222
      4 H1          1.6850   -2.7970    5.3320 hc        1 MOL      0.067171
      5 H2          2.3050   -1.5590    6.4500 hc        1 MOL      0.067171
      6 H3          1.1270   -1.1140    5.1920 hc        1 MOL      0.067171
      7 N1          4.2780   -2.1810    4.5660 n         1 MOL     -0.387547
      8 C3          5.5440   -1.8520    3.9230 c3        1 MOL      0.027740
      9 C4          5.6280   -2.3600    2.4410 c         1 MOL      0.590293
     10 O2          6.4010   -1.8170    1.6680 o         1 MOL     -0.506536
     11 C5          6.7190   -2.3470    4.7520 c3        1 MOL     -0.052390
     12 C6          8.0470   -1.6650    4.3460 c         1 MOL      0.642258
     13 O3          8.0220   -0.3630    4.4520 o         1 MOL     -0.702670
     14 O4          9.0360   -2.3280    4.0420 o         1 MOL     -0.702670
     15 H4          4.3590   -2.8680    5.3080 hn        1 MOL      0.223931
     16 H5          5.6470   -0.7800    3.8100 h1        1 MOL      0.049906
     17 H6          6.7390   -3.4310    4.7930 hc        1 MOL     -0.018705
     18 H7          6.5550   -1.9820    5.7710 hc        1 MOL     -0.018705
     19 N2          4.7730   -3.3550    2.0560 n         1 MOL     -0.529156
     20 C7          4.7020   -3.9470    0.8160 c3        1 MOL      0.243501
     21 C8          4.5290   -3.0570   -0.4600 c         1 MOL      0.609616
     22 O5          3.4900   -3.0300   -1.1160 o         1 MOL     -0.684794
     23 C9          5.8320   -4.9770    0.6580 c3        1 MOL     -0.394925
     24 H8          4.1860   -3.6950    2.7980 hn        1 MOL      0.262425
     25 H9          3.8550   -4.6350    0.8370 h1        1 MOL      0.050456
     26 H10         5.7790   -5.7290    1.4460 hc        1 MOL      0.096662
     27 H11         5.6820   -5.4140   -0.3290 hc        1 MOL      0.096662
     28 H12         6.8090   -4.4860    0.6660 hc        1 MOL      0.096662
     29 N3          5.6160   -2.3390   -0.7920 n         1 MOL     -0.421004
     30 C10         5.7130   -1.5330   -1.9710 c3        1 MOL      0.031625
     31 C11         6.1150   -0.1050   -1.6140 c         1 MOL      0.523783
     32 O6          6.7650    0.6130   -2.3630 o         1 MOL     -0.530854
     33 C12         6.6360   -2.1920   -2.9990 c3        1 MOL     -0.057260
     34 C13         6.3700   -1.7420   -4.4710 c         1 MOL      0.608405
     35 O7          5.1460   -1.5790   -4.7790 o         1 MOL     -0.664970
     36 O8          7.2990   -1.9390   -5.2850 o         1 MOL     -0.664970
     37 H13         6.3660   -2.2590   -0.1260 hn        1 MOL      0.258505
     38 H14         4.7160   -1.4460   -2.4200 h1        1 MOL      0.086476
     39 H15         6.5860   -3.2870   -2.9190 hc        1 MOL      0.010159
     40 H16         7.6910   -1.9260   -2.8980 hc        1 MOL      0.010159
     41 N4          5.8230    0.3590   -0.4270 n         1 MOL     -0.214035
     42 C14         6.1640    1.7170   -0.1030 c3        1 MOL     -0.179217
     43 C15         5.1800    2.6670   -0.6860 c         1 MOL      0.570620
     44 O9          5.5620    3.7590   -1.1400 o         1 MOL     -0.560305
     45 H17         5.3240   -0.1720    0.2730 hn        1 MOL      0.230953
     46 H18         7.1670    1.9290   -0.4750 h1        1 MOL      0.096478
     47 H19         6.2110    1.8760    0.9660 h1        1 MOL      0.096478
     48 N5          3.9220    2.2560   -0.8680 n         1 MOL     -0.169505
     49 C16         3.0940    2.9160   -1.7750 c3        1 MOL     -0.564164
     50 C17         2.4360    4.2240   -1.2220 c         1 MOL      0.688364
     51 O10         1.9480    4.2290   -0.0780 o         1 MOL     -0.560317
     52 C18         1.9850    1.9720   -2.2340 c3        1 MOL     -0.006017
     53 C19         2.4730    0.7320   -2.8740 c         1 MOL      0.457288
     54 N6          3.1020    0.8540   -4.0500 n         1 MOL     -0.522242
     55 O11         2.3680   -0.4050   -2.3850 o         1 MOL     -0.626903
     56 H20         3.5340    1.5670   -0.2400 hn        1 MOL      0.273893
     57 H21         3.6160    3.2610   -2.6710 h1        1 MOL      0.211282
     58 H22         1.1880    2.4260   -2.8220 hc        1 MOL      0.105991
     59 H23         1.5610    1.6550   -1.2800 hc        1 MOL      0.105991
     60 H24         3.2190    1.7820   -4.4410 hn        1 MOL      0.267173
     61 H25         3.3350   -0.0100   -4.5130 hn        1 MOL      0.267173
     62 N7          2.5240    5.2820   -2.0190 n         1 MOL     -0.375248
     63 C20         2.1150    6.6970   -1.8060 c3        1 MOL     -0.126078
     64 C21         0.6270    6.8200   -1.4900 c         1 MOL      0.527846
     65 O12        -0.2050    6.3500   -2.1840 o         1 MOL     -0.507742
     66 H26         3.1790    5.1210   -2.7750 hn        1 MOL      0.261695
     67 H27         2.1850    7.2710   -2.7310 h1        1 MOL      0.093266
     68 H28         2.7250    7.2210   -1.0830 h1        1 MOL      0.093266
     69 N8          0.3630    7.3530   -0.3420 n         1 MOL     -0.410492
     70 C22        -1.0560    7.6910   -0.0650 c3        1 MOL     -0.331195
     71 C23        -2.0120    6.4980    0.2390 c         1 MOL      0.492613
     72 O13        -3.2550    6.7510    0.2170 o         1 MOL     -0.576712
     73 C24        -1.2770    8.9090    0.8590 c3        1 MOL      0.501862
     74 C25        -0.8830    8.6830    2.2750 c3        1 MOL     -0.367471
     75 O14        -0.5420    9.9710    0.4060 oh        1 MOL     -0.631026
     76 H29         1.1680    7.7200    0.1430 hn        1 MOL      0.290519
     77 H30        -1.4560    8.0840   -1.0010 h1        1 MOL      0.184117
     78 H31        -2.3130    9.2020    0.6840 h1        1 MOL      0.037774
     79 H32         0.3870    9.7430    0.4830 ho        1 MOL      0.365886
     80 H33         0.0970    8.2140    2.3470 hc        1 MOL      0.084121
     81 H34        -0.9430    9.6410    2.7910 hc        1 MOL      0.084121
     82 H35        -1.6250    8.0580    2.7750 hc        1 MOL      0.084121
     83 N9         -1.4620    5.3270    0.5180 n         1 MOL     -0.092419
     84 C26        -2.1380    4.1300    0.9320 c3        1 MOL     -0.017151
     85 C27        -1.9440    2.9650   -0.0170 c         1 MOL      0.444545
     86 O15        -1.2470    3.0150   -0.9960 o         1 MOL     -0.444937
     87 C28        -1.8310    3.8650    2.4240 c3        1 MOL      0.087826
     88 C29        -0.3940    3.4120    2.6720 c3        1 MOL     -0.186185
     89 C30        -2.1530    5.0460    3.4190 c3        1 MOL     -0.224330
     90 C31         0.0100    3.0900    4.0980 c3        1 MOL     -0.235663
     91 H36        -0.4840    5.2030    0.3030 hn        1 MOL      0.158197
     92 H37        -3.2300    4.2240    0.9410 h1        1 MOL      0.048077
     93 H38        -2.4750    3.0380    2.6990 hc        1 MOL     -0.016230
     94 H39         0.2850    4.1610    2.2830 hc        1 MOL      0.132930
     95 H40        -0.2450    2.5200    2.0480 hc        1 MOL      0.132930
     96 H41        -1.4550    5.8690    3.3080 hc        1 MOL      0.053418
     97 H42        -3.1280    5.4500    3.1300 hc        1 MOL      0.053418
     98 H43        -2.2310    4.6600    4.4370 hc        1 MOL      0.053418
     99 H44        -0.7070    2.3900    4.5360 hc        1 MOL      0.072285
    100 H45         0.9850    2.6050    4.1550 hc        1 MOL      0.072285
    101 H46         0.0130    4.0030    4.6920 hc        1 MOL      0.072285
    102 N10        -2.6270    1.8950    0.2890 n         1 MOL     -0.445477
    103 C32        -2.4010    0.6380   -0.3730 c3        1 MOL      0.042199
    104 C33        -3.6530   -0.1960   -0.5510 c         1 MOL      0.517892
    105 O16        -3.5620   -1.4060   -0.8970 o         1 MOL     -0.522410
    106 C34        -1.2820   -0.0870    0.4340 c3        1 MOL     -0.132307
    107 C35        -0.4150   -0.7710   -0.5580 c         1 MOL      0.719483
    108 O17         0.6640   -1.2240   -0.0760 o         1 MOL     -0.740349
    109 O18        -0.4720   -0.7740   -1.7960 o         1 MOL     -0.740349
    110 H47        -3.0880    1.8520    1.1850 hn        1 MOL      0.269261
    111 H48        -2.0020    0.8210   -1.3670 h1        1 MOL      0.092174
    112 H49        -1.6010   -0.8890    1.0880 hc        1 MOL      0.045925
    113 H50        -0.6200    0.5830    0.9830 hc        1 MOL      0.045925
    114 N11        -4.8110    0.3710   -0.4820 n         1 MOL     -0.334164
    115 C36        -6.0580   -0.3030   -0.8450 c3        1 MOL      0.090811
    116 C37        -6.2700   -1.5080    0.1160 c         1 MOL      0.383737
    117 O19        -6.2850   -1.3590    1.3540 o         1 MOL     -0.504687
    118 C38        -7.1660    0.7210   -0.7930 c3        1 MOL     -0.162671
    119 C39        -8.5460    0.3250   -1.0110 ca        1 MOL      0.081555
    120 C40        -8.9870   -0.1420   -2.2400 ca        1 MOL     -0.136895
    121 C41        -9.5010    0.4700   -0.0040 ca        1 MOL     -0.136895
    122 C42       -10.3340   -0.4090   -2.5300 ca        1 MOL     -0.134410
    123 C43       -10.8210    0.0370   -0.2360 ca        1 MOL     -0.134410
    124 C44       -11.2780   -0.3600   -1.5120 ca        1 MOL     -0.108593
    125 H51        -4.8280    1.3420   -0.2240 hn        1 MOL      0.203003
    126 H52        -5.9010   -0.6610   -1.8620 h1        1 MOL      0.038999
    127 H53        -6.9840    1.5720   -1.4480 hc        1 MOL      0.089658
    128 H54        -7.1180    1.1850    0.1930 hc        1 MOL      0.089658
    129 H55        -8.2750   -0.2140   -3.0470 ha        1 MOL      0.114893
    130 H56        -9.2230    0.7390    1.0090 ha        1 MOL      0.114893
    131 H57       -10.6590   -0.7380   -3.5040 ha        1 MOL      0.112993
    132 H58       -11.5180   -0.0410    0.5820 ha        1 MOL      0.112993
    133 H59       -12.3250   -0.5880   -1.6610 ha        1 MOL      0.109355
    134 N12        -6.5200   -2.6720   -0.4480 n         1 MOL     -0.191603
    135 C45        -6.7180   -3.9190    0.3480 c3        1 MOL      0.151032
    136 C46        -5.7350   -4.2560    1.4720 c         1 MOL      0.230161
    137 O20        -6.0540   -5.0640    2.3570 o         1 MOL     -0.499913
    138 C47        -6.8190   -5.0510   -0.6130 c3        1 MOL     -0.119960
    139 C48        -7.3230   -4.4060   -1.9370 c3        1 MOL      0.013419
    140 C49        -6.5930   -3.0440   -1.9530 c3        1 MOL     -0.033471
    141 H60        -7.6690   -3.9580    0.8740 h1        1 MOL      0.055556
    142 H61        -5.8020   -5.3850   -0.8280 hc        1 MOL      0.057796
    143 H62        -7.4770   -5.8620   -0.2910 hc        1 MOL      0.057796
    144 H63        -7.1160   -4.9790   -2.8410 hc        1 MOL      0.012823
    145 H64        -8.3950   -4.2800   -2.0730 hc        1 MOL      0.012823
    146 H65        -5.6150   -3.2010   -2.4170 h1        1 MOL      0.073740
    147 H66        -7.1960   -2.3650   -2.5650 h1        1 MOL      0.073740
    148 N13        -4.4760   -3.7640    1.3750 n         1 MOL      0.017383
    149 C50        -3.3370   -3.9210    2.2820 c3        1 MOL     -0.146087
    150 C51        -3.4390   -2.9170    3.4660 c         1 MOL      0.423867
    151 O21        -3.0040   -3.2650    4.5810 o         1 MOL     -0.523684
    152 C52        -2.1250   -3.7490    1.3720 c3        1 MOL      0.118019
    153 C53        -1.8900   -4.8340    0.2870 c3        1 MOL     -0.242448
    154 C54        -0.7080   -4.4300   -0.6140 c         1 MOL      0.718601
    155 O22        -0.9050   -3.9960   -1.7750 o         1 MOL     -0.751172
    156 O23         0.5010   -4.3500   -0.2280 o         1 MOL     -0.751172
    157 H67        -4.4550   -3.0370    0.6620 hn        1 MOL      0.115008
    158 H68        -3.4640   -4.9140    2.7100 h1        1 MOL      0.116013
    159 H69        -1.2010   -3.6350    1.9340 hc        1 MOL      0.021658
    160 H70        -2.2640   -2.8020    0.8540 hc        1 MOL      0.021658
    161 H71        -2.8260   -4.8690   -0.2860 hc        1 MOL      0.031100
    162 H72        -1.7880   -5.8280    0.7340 hc        1 MOL      0.031100
    163 N14        -4.1250   -1.7310    3.2540 n         1 MOL     -0.083093
    164 C55        -4.4260   -0.8010    4.2760 c3        1 MOL     -0.327247
    165 H73        -3.5560   -0.1720    4.4610 h1        1 MOL      0.116505
    166 H74        -5.2650   -0.1780    3.9660 h1        1 MOL      0.116505
    167 H75        -4.6880   -1.3360    5.1890 h1        1 MOL      0.116505
    168 H76        -4.4620   -1.5810    2.3170 hn        1 MOL      0.128440
    169 Ca1         1.2590   -2.7690   -2.2630 Ca        1 MOL      1.804954
    170 O24        -0.2100   -2.9490   -4.3470 oh        1 MOL     -0.825155
    171 H77        -1.0960   -2.6500   -4.1500 ho        1 MOL      0.396862
    172 H78        -0.0920   -2.7400   -5.2680 ho        1 MOL      0.396862
    173 O25         2.8400   -2.3720   -4.6320 oh        1 MOL     -0.825155
    174 H79         2.6440   -2.4130   -5.5690 ho        1 MOL      0.396862
    175 H80         3.8020   -2.3320   -4.5970 ho        1 MOL      0.396862
    176 O26         1.4280   -5.3230   -2.9440 oh        1 MOL     -0.825155
    177 H81         0.6150   -5.7490   -2.6780 ho        1 MOL      0.396862
    178 H82         2.0990   -5.9850   -2.8110 ho        1 MOL      0.396862
@<TRIPOS>BOND
     1    1    2 1   
     2    1    4 1   
     3    1    5 1   
     4    1    6 1   
     5    2    3 2   
     6    2    7 1   
     7    7    8 1   
     8    7   15 1   
     9    8    9 1   
    10    8   11 1   
    11    8   16 1   
    12    9   10 2   
    13    9   19 1   
    14   11   12 1   
    15   11   17 1   
    16   11   18 1   
    17   12   13 1   
    18   12   14 1   
    19   19   20 1   
    20   19   24 1   
    21   20   21 1   
    22   20   23 1   
    23   20   25 1   
    24   21   22 2   
    25   21   29 1   
    26   23   26 1   
    27   23   27 1   
    28   23   28 1   
    29   29   30 1   
    30   29   37 1   
    31   30   31 1   
    32   30   33 1   
    33   30   38 1   
    34   31   32 2   
    35   31   41 1   
    36   33   34 1   
    37   33   39 1   
    38   33   40 1   
    39   34   35 1   
    40   34   36 1   
    41   41   42 1   
    42   41   45 1   
    43   42   43 1   
    44   42   46 1   
    45   42   47 1   
    46   43   44 2   
    47   43   48 1   
    48   48   49 1   
    49   48   56 1   
    50   49   50 1   
    51   49   52 1   
    52   49   57 1   
    53   50   51 2   
    54   50   62 1   
    55   52   53 1   
    56   52   58 1   
    57   52   59 1   
    58   53   54 1   
    59   53   55 2   
    60   54   60 1   
    61   54   61 1   
    62   62   63 1   
    63   62   66 1   
    64   63   64 1   
    65   63   67 1   
    66   63   68 1   
    67   64   65 2   
    68   64   69 1   
    69   69   70 1   
    70   69   76 1   
    71   70   71 1   
    72   70   73 1   
    73   70   77 1   
    74   71   72 2   
    75   71   83 1   
    76   73   74 1   
    77   73   75 1   
    78   73   78 1   
    79   74   80 1   
    80   74   81 1   
    81   74   82 1   
    82   75   79 1   
    83   83   84 1   
    84   83   91 1   
    85   84   85 1   
    86   84   87 1   
    87   84   92 1   
    88   85   86 2   
    89   85  102 1   
    90   87   88 1   
    91   87   89 1   
    92   87   93 1   
    93   88   90 1   
    94   88   94 1   
    95   88   95 1   
    96   89   96 1   
    97   89   97 1   
    98   89   98 1   
    99   90   99 1   
   100   90  100 1   
   101   90  101 1   
   102  102  103 1   
   103  102  110 1   
   104  103  104 1   
   105  103  106 1   
   106  103  111 1   
   107  104  105 2   
   108  104  114 1   
   109  106  107 1   
   110  106  112 1   
   111  106  113 1   
   112  107  108 1   
   113  107  109 1   
   114  114  115 1   
   115  114  125 1   
   116  115  116 1   
   117  115  118 1   
   118  115  126 1   
   119  116  117 2   
   120  116  134 1   
   121  118  119 1   
   122  118  127 1   
   123  118  128 1   
   124  119  120 ar  
   125  119  121 ar  
   126  120  122 ar  
   127  120  129 1   
   128  121  123 ar  
   129  121  130 1   
   130  122  124 ar  
   131  122  131 1   
   132  123  124 ar  
   133  123  132 1   
   134  124  133 1   
   135  134  135 1   
   136  134  140 1   
   137  135  136 1   
   138  135  138 1   
   139  135  141 1   
   140  136  137 2   
   141  136  148 1   
   142  138  139 1   
   143  138  142 1   
   144  138  143 1   
   145  139  140 1   
   146  139  144 1   
   147  139  145 1   
   148  140  146 1   
   149  140  147 1   
   150  148  149 1   
   151  148  157 1   
   152  149  150 1   
   153  149  152 1   
   154  149  158 1   
   155  150  151 2   
   156  150  163 1   
   157  152  153 1   
   158  152  159 1   
   159  152  160 1   
   160  153  154 1   
   161  153  161 1   
   162  153  162 1   
   163  154  155 1   
   164  154  156 1   
   165  163  164 1   
   166  163  168 1   
   167  164  165 1   
   168  164  166 1   
   169  164  167 1   
   170  170  171 1   
   171  170  172 1   
   172  173  174 1   
   173  173  175 1   
   174  176  177 1   
   175  176  178 1   
@<TRIPOS>SUBSTRUCTURE
     1 MOL         1 TEMP              0 ****  ****    0 ROOT
