@<TRIPOS>MOLECULE
MOL
  192   187     1     0     0
SMALL
resp


@<TRIPOS>ATOM
      1 C1          1.1670    7.3720    3.3530 c3        1 MOL     -0.312785
      2 C2          0.6830    6.3630    2.3270 c         1 MOL      0.574173
      3 O1         -0.0560    5.4550    2.5930 o         1 MOL     -0.557498
      4 H1          0.8080    7.0840    4.3410 hc        1 MOL      0.083985
      5 H2          2.2570    7.3960    3.3560 hc        1 MOL      0.083985
      6 H3          0.7820    8.3600    3.1010 hc        1 MOL      0.083985
      7 N1          0.7940    6.6370    1.0520 n         1 MOL     -0.275021
      8 C3          0.3810    5.7400   -0.0300 c3        1 MOL     -0.153015
      9 C4          1.3040    4.6290   -0.2780 c         1 MOL      0.487498
     10 O2          0.9880    3.7670   -1.1330 o         1 MOL     -0.539145
     11 C5          0.0240    6.5860   -1.2910 c3        1 MOL     -0.182977
     12 C6          1.2230    7.3430   -1.9160 c         1 MOL      0.702461
     13 O3          2.2520    7.5940   -1.2220 o         1 MOL     -0.695537
     14 O4          1.0980    7.6320   -3.1580 o         1 MOL     -0.695537
     15 H4          1.3700    7.3910    0.7140 hn        1 MOL      0.203645
     16 H5         -0.4960    5.2400    0.3830 h1        1 MOL      0.140984
     17 H6         -0.6560    7.3590   -0.9400 hc        1 MOL      0.069570
     18 H7         -0.3790    6.0070   -2.1330 hc        1 MOL      0.069570
     19 N2          2.5870    4.6410    0.2430 n         1 MOL     -0.304150
     20 C7          3.6150    3.5950   -0.0600 c3        1 MOL      0.372002
     21 C8          3.7620    2.6050    1.1760 c         1 MOL      0.251418
     22 O5          3.7580    3.0410    2.3560 o         1 MOL     -0.511816
     23 C9          4.9790    4.2930   -0.3280 c3        1 MOL     -0.005884
     24 C10         4.9940    5.4360   -1.3400 c3        1 MOL     -0.131209
     25 C11         4.2180    5.3000   -2.6590 c3        1 MOL     -0.083716
     26 C12         4.6420    6.4500   -3.6040 c3        1 MOL      0.074211
     27 N3          4.2570    7.7530   -3.1170 n4        1 MOL     -0.278210
     28 H8          2.7500    5.3520    0.9240 hn        1 MOL      0.204630
     29 H9          3.3120    2.9290   -0.8680 h1        1 MOL     -0.033713
     30 H10         5.6770    3.4920   -0.5530 hc        1 MOL      0.016258
     31 H11         5.2360    4.7110    0.6420 hc        1 MOL      0.016258
     32 H12         6.0180    5.5410   -1.7130 hc        1 MOL      0.029671
     33 H13         4.7510    6.3480   -0.8050 hc        1 MOL      0.029671
     34 H14         3.1510    5.3120   -2.4510 hc        1 MOL      0.082906
     35 H15         4.4320    4.3540   -3.1550 hc        1 MOL      0.082906
     36 H16         4.2690    6.2700   -4.6120 hx        1 MOL      0.048516
     37 H17         5.7350    6.4090   -3.6810 hx        1 MOL      0.048516
     38 H18         4.5950    7.8860   -2.1730 hn        1 MOL      0.281450
     39 H19         4.6210    8.5660   -3.5950 hn        1 MOL      0.281450
     40 H20         3.2580    7.7710   -2.9880 hn        1 MOL      0.281450
     41 N4          3.9980    1.3050    0.9650 n         1 MOL     -0.266865
     42 C13         3.8690    0.3940   -0.2350 c3        1 MOL      0.016691
     43 C14         4.7390    0.8560   -1.4460 c         1 MOL      0.423224
     44 O6          4.2300    1.1660   -2.5320 o         1 MOL     -0.527751
     45 C15         2.4360   -0.0350   -0.5510 c3        1 MOL     -0.277415
     46 C16         1.6970   -0.6620    0.5770 c         1 MOL      0.939735
     47 O7          2.3640   -1.2110    1.4740 o         1 MOL     -0.810362
     48 O8          0.4790   -0.7370    0.5710 o         1 MOL     -0.810362
     49 H21         4.3190    0.8630    1.8190 hn        1 MOL      0.280947
     50 H22         4.3790   -0.5270    0.0430 h1        1 MOL      0.159183
     51 H23         2.4370   -0.7040   -1.4050 hc        1 MOL      0.082897
     52 H24         1.8460    0.8130   -0.8900 hc        1 MOL      0.082897
     53 N5          6.0840    0.9200   -1.2510 n         1 MOL     -0.366246
     54 C17         6.8040    0.4510   -0.0260 c3        1 MOL     -0.077270
     55 C18         8.1260   -0.2870   -0.3170 c         1 MOL      0.569203
     56 O9          8.5580   -0.5130   -1.4780 o         1 MOL     -0.558161
     57 H25         6.6830    0.9770   -2.0670 hn        1 MOL      0.279713
     58 H26         6.1300   -0.1870    0.5470 h1        1 MOL      0.070768
     59 H27         7.0470    1.3450    0.5490 h1        1 MOL      0.070768
     60 N6          8.6360   -0.9610    0.7440 n         1 MOL     -0.453715
     61 C19         8.2190   -1.0000    2.1360 c3        1 MOL     -0.060454
     62 C20         7.0040   -1.8930    2.4030 c         1 MOL      0.649713
     63 O10         6.4300   -1.7920    3.4650 o         1 MOL     -0.569924
     64 C21         9.3540   -1.3720    3.0710 c3        1 MOL     -0.221862
     65 C22        10.6480   -0.6030    2.8350 c         1 MOL      0.758458
     66 O11        11.7320   -1.1710    2.6120 o         1 MOL     -0.724468
     67 O12        10.6020    0.6450    2.9740 o         1 MOL     -0.724468
     68 H28         9.3860   -1.5870    0.4640 hn        1 MOL      0.313823
     69 H29         7.8720   -0.0010    2.3870 h1        1 MOL      0.077421
     70 H30         9.6620   -2.4080    2.9150 hc        1 MOL      0.044884
     71 H31         9.0870   -1.3210    4.1220 hc        1 MOL      0.044884
     72 N7          6.5070   -2.5700    1.3880 n         1 MOL     -0.415782
     73 C23         5.1540   -3.2690    1.5080 c3        1 MOL     -0.278767
     74 C24         4.5720   -3.5880    0.1310 c         1 MOL      0.735676
     75 O13         5.1090   -3.2320   -0.9040 o         1 MOL     -0.502080
     76 H32         6.9100   -2.4960    0.4680 hn        1 MOL      0.252167
     77 H33         4.4620   -2.5100    1.8720 h1        1 MOL      0.135967
     78 H34         5.1750   -4.0650    2.2510 h1        1 MOL      0.135967
     79 N8          3.4060   -4.3120    0.1090 n         1 MOL     -0.719860
     80 C25         2.6880   -4.7570   -1.0350 c3        1 MOL      0.081039
     81 C26         1.4680   -3.9330   -1.2560 c         1 MOL      0.665181
     82 O14         0.7040   -3.5350   -0.3270 o         1 MOL     -0.659030
     83 C27         2.2540   -6.2350   -0.9360 c3        1 MOL      0.556538
     84 C28         1.7080   -6.8480   -2.2370 c3        1 MOL     -0.326840
     85 O15         1.4070   -6.5450    0.1340 oh        1 MOL     -0.713639
     86 H35         3.0220   -4.4240    1.0410 hn        1 MOL      0.239677
     87 H36         3.3830   -4.6770   -1.8670 h1        1 MOL      0.055957
     88 H37         3.1820   -6.7850   -0.7980 h1        1 MOL     -0.039341
     89 H38         1.9230   -6.6830    0.9230 ho        1 MOL      0.418114
     90 H39         0.6280   -6.7210   -2.2740 hc        1 MOL      0.086404
     91 H40         2.1710   -6.4470   -3.1360 hc        1 MOL      0.086404
     92 H41         1.9130   -7.9240   -2.2430 hc        1 MOL      0.086404
     93 N9          1.2390   -3.5580   -2.5460 n         1 MOL     -0.512980
     94 C29         0.1570   -2.7510   -3.0300 c3        1 MOL     -0.231891
     95 C30        -1.1010   -3.6360   -3.0440 c         1 MOL      0.698983
     96 O16        -1.1530   -4.6230   -3.8000 o         1 MOL     -0.582758
     97 C31         0.4970   -2.1380   -4.3940 c3        1 MOL      0.129208
     98 C32         1.7080   -1.1650   -4.2520 c3        1 MOL      0.188769
     99 C33        -0.7760   -1.3750   -4.9990 c3        1 MOL     -0.369943
    100 C34         2.1790   -0.6730   -5.6590 c3        1 MOL     -0.330112
    101 H42         1.8350   -3.9600   -3.2520 hn        1 MOL      0.298984
    102 H43        -0.0470   -1.9750   -2.2880 h1        1 MOL      0.111778
    103 H44         0.8330   -2.9690   -5.0190 hc        1 MOL      0.032806
    104 H45         2.6270   -1.6270   -3.8860 hc        1 MOL      0.010456
    105 H46         1.3890   -0.3390   -3.6180 hc        1 MOL      0.010456
    106 H47        -0.5770   -0.9950   -6.0010 hc        1 MOL      0.098423
    107 H48        -1.5560   -2.1210   -5.1400 hc        1 MOL      0.098423
    108 H49        -1.0960   -0.5720   -4.3310 hc        1 MOL      0.098423
    109 H50         3.1310   -0.1930   -5.4650 hc        1 MOL      0.078723
    110 H51         2.2640   -1.5680   -6.2800 hc        1 MOL      0.078723
    111 H52         1.4190    0.0090   -6.0430 hc        1 MOL      0.078723
    112 N10        -2.0770   -3.4010   -2.1670 n         1 MOL     -0.538611
    113 C35        -3.3910   -4.0710   -2.1710 c3        1 MOL      0.012255
    114 C36        -4.5550   -3.0850   -2.2890 c         1 MOL      0.382929
    115 O17        -5.7470   -3.5030   -2.6120 o         1 MOL     -0.518098
    116 C37        -3.5490   -4.9570   -0.9250 c3        1 MOL      0.469765
    117 C38        -4.5850   -6.1000   -1.1040 c3        1 MOL     -0.603064
    118 O18        -4.1150   -4.1550    0.1090 oh        1 MOL     -0.596914
    119 H53        -1.8740   -2.7170   -1.4450 hn        1 MOL      0.309606
    120 H54        -3.4720   -4.7390   -3.0250 h1        1 MOL      0.111718
    121 H55        -2.5790   -5.3450   -0.6180 h1        1 MOL     -0.018798
    122 H56        -3.3360   -3.7080    0.4540 ho        1 MOL      0.343687
    123 H57        -4.6090   -6.7790   -0.2450 hc        1 MOL      0.154526
    124 H58        -5.6180   -5.7460   -1.1410 hc        1 MOL      0.154526
    125 H59        -4.2980   -6.5630   -2.0450 hc        1 MOL      0.154526
    126 N11        -4.2800   -1.8470   -1.9950 n         1 MOL     -0.319277
    127 C39        -5.1290   -0.7100   -2.1510 c3        1 MOL      0.030457
    128 C40        -6.3270   -0.8090   -1.1960 c         1 MOL      0.384429
    129 O19        -6.6610   -1.8920   -0.6430 o         1 MOL     -0.384925
    130 C41        -5.5700   -0.3790   -3.6290 c3        1 MOL      0.271028
    131 C42        -4.5870   -0.2910   -4.8590 c3        1 MOL     -0.319742
    132 O20        -6.1420    0.9940   -3.6890 oh        1 MOL     -0.654824
    133 H60        -3.3180   -1.6310   -1.7740 hn        1 MOL      0.262563
    134 H61        -4.6770    0.2240   -1.8100 h1        1 MOL      0.047945
    135 H62        -6.2580   -1.1330   -3.9860 h1        1 MOL      0.098796
    136 H63        -5.3910    1.5160   -3.9650 ho        1 MOL      0.405016
    137 H64        -3.7490    0.3490   -4.5740 hc        1 MOL      0.090309
    138 H65        -4.2050   -1.2760   -5.1250 hc        1 MOL      0.090309
    139 H66        -5.0520    0.2650   -5.6720 hc        1 MOL      0.090309
    140 N12        -6.9800    0.3540   -0.9260 n         1 MOL     -0.258768
    141 C43        -8.1550    0.4150   -0.0450 c3        1 MOL     -0.132418
    142 C44        -7.7750    0.0760    1.4340 c         1 MOL      0.471540
    143 O21        -8.6710   -0.3050    2.1730 o         1 MOL     -0.555427
    144 C45        -8.5930    1.9030   -0.0170 c3        1 MOL      0.029352
    145 C46       -10.0180    2.0520    0.5290 c3        1 MOL     -0.048614
    146 C47       -10.3340    3.5070    0.6600 c3        1 MOL     -0.096623
    147 C48       -10.5180    4.2470   -0.6920 c3        1 MOL      0.094756
    148 N13       -10.8280    5.6550   -0.4430 n4        1 MOL     -0.492808
    149 H67        -6.6580    1.1830   -1.4060 hn        1 MOL      0.209995
    150 H68        -8.9730   -0.2570   -0.2950 h1        1 MOL      0.136880
    151 H69        -8.4020    2.3490   -0.9940 hc        1 MOL      0.019800
    152 H70        -7.8460    2.3930    0.6010 hc        1 MOL      0.019800
    153 H71       -10.0810    1.6300    1.5380 hc        1 MOL      0.055574
    154 H72       -10.7760    1.6050   -0.1130 hc        1 MOL      0.055574
    155 H73        -9.6500    4.0040    1.3310 hc        1 MOL      0.060989
    156 H74       -11.2820    3.6450    1.1800 hc        1 MOL      0.060989
    157 H75       -11.3400    3.9160   -1.3310 hx        1 MOL      0.075586
    158 H76        -9.6370    4.0870   -1.3130 hx        1 MOL      0.075586
    159 H77       -10.9620    6.2590   -1.2420 hn        1 MOL      0.362725
    160 H78       -11.7500    5.6510   -0.0360 hn        1 MOL      0.362725
    161 H79       -10.0840    6.1270    0.0650 hn        1 MOL      0.362725
    162 N14        -6.5660    0.3900    1.8940 n         1 MOL     -0.260390
    163 C49        -6.0570   -0.1130    3.2080 c3        1 MOL     -0.132869
    164 C50        -6.3310    0.8280    4.3280 c         1 MOL      0.461921
    165 O22        -5.6420    1.8650    4.5830 o         1 MOL     -0.519800
    166 C51        -4.5740   -0.3510    3.1150 c3        1 MOL     -0.230498
    167 C52        -4.2440   -1.5490    2.1570 c3        1 MOL     -0.000880
    168 C53        -2.7340   -1.9030    2.0450 c         1 MOL      0.584307
    169 O23        -2.2490   -2.7530    1.2460 o         1 MOL     -0.674183
    170 O24        -1.9520   -1.2940    2.8260 o         1 MOL     -0.674183
    171 H80        -6.0270    0.8700    1.1920 hn        1 MOL      0.238522
    172 H81        -6.5520   -1.0520    3.4400 h1        1 MOL      0.140616
    173 H82        -4.2010   -0.5380    4.1230 hc        1 MOL      0.119681
    174 H83        -4.0140    0.4880    2.6970 hc        1 MOL      0.119681
    175 H84        -4.6200   -1.3960    1.1400 hc        1 MOL      0.036287
    176 H85        -4.6630   -2.5050    2.4760 hc        1 MOL      0.036287
    177 N15        -7.3210    0.4480    5.1330 n         1 MOL     -0.259576
    178 C54        -7.7760    1.1480    6.3660 c3        1 MOL     -0.094339
    179 H86        -7.9240    0.4200    7.1620 h1        1 MOL      0.074395
    180 H87        -7.0220    1.8720    6.6720 h1        1 MOL      0.074395
    181 H88        -8.7160    1.6640    6.1650 h1        1 MOL      0.074395
    182 H89        -7.7800   -0.4200    4.9010 hn        1 MOL      0.243669
    183 Ca1         0.1260   -2.7360    2.1860 Ca        1 MOL      1.777658
    184 O25        -0.5240   -4.0690    4.3620 oh        1 MOL     -0.900102
    185 H90        -0.6350   -4.9820    4.6060 ho        1 MOL      0.443773
    186 H91        -1.0020   -3.5770    5.0440 ho        1 MOL      0.443773
    187 O26        -0.7470   -5.3140    1.4360 oh        1 MOL     -0.900102
    188 H92        -1.0950   -6.1730    1.6480 ho        1 MOL      0.443773
    189 H93        -0.0610   -5.4820    0.7820 ho        1 MOL      0.443773
    190 O27         1.1500   -1.2830    4.2090 oh        1 MOL     -0.900102
    191 H94         1.5180   -1.7360    4.9700 ho        1 MOL      0.443773
    192 H95         1.4430   -0.3840    4.3090 ho        1 MOL      0.443773
@<TRIPOS>BOND
     1    1    2 1   
     2    1    4 1   
     3    1    5 1   
     4    1    6 1   
     5    2    3 2   
     6    2    7 1   
     7    7    8 1   
     8    7   15 1   
     9    8    9 1   
    10    8   11 1   
    11    8   16 1   
    12    9   10 2   
    13    9   19 1   
    14   11   12 1   
    15   11   17 1   
    16   11   18 1   
    17   12   13 1   
    18   12   14 1   
    19   19   20 1   
    20   19   28 1   
    21   20   21 1   
    22   20   23 1   
    23   20   29 1   
    24   21   22 2   
    25   21   41 1   
    26   23   24 1   
    27   23   30 1   
    28   23   31 1   
    29   24   25 1   
    30   24   32 1   
    31   24   33 1   
    32   25   26 1   
    33   25   34 1   
    34   25   35 1   
    35   26   27 1   
    36   26   36 1   
    37   26   37 1   
    38   27   38 1   
    39   27   39 1   
    40   27   40 1   
    41   41   42 1   
    42   41   49 1   
    43   42   43 1   
    44   42   45 1   
    45   42   50 1   
    46   43   44 2   
    47   43   53 1   
    48   45   46 1   
    49   45   51 1   
    50   45   52 1   
    51   46   47 1   
    52   46   48 1   
    53   53   54 1   
    54   53   57 1   
    55   54   55 1   
    56   54   58 1   
    57   54   59 1   
    58   55   56 2   
    59   55   60 1   
    60   60   61 1   
    61   60   68 1   
    62   61   62 1   
    63   61   64 1   
    64   61   69 1   
    65   62   63 2   
    66   62   72 1   
    67   64   65 1   
    68   64   70 1   
    69   64   71 1   
    70   65   66 1   
    71   65   67 1   
    72   72   73 1   
    73   72   76 1   
    74   73   74 1   
    75   73   77 1   
    76   73   78 1   
    77   74   75 2   
    78   74   79 1   
    79   79   80 1   
    80   79   86 1   
    81   80   81 1   
    82   80   83 1   
    83   80   87 1   
    84   81   82 2   
    85   81   93 1   
    86   83   84 1   
    87   83   85 1   
    88   83   88 1   
    89   84   90 1   
    90   84   91 1   
    91   84   92 1   
    92   85   89 1   
    93   93   94 1   
    94   93  101 1   
    95   94   95 1   
    96   94   97 1   
    97   94  102 1   
    98   95   96 2   
    99   95  112 1   
   100   97   98 1   
   101   97   99 1   
   102   97  103 1   
   103   98  100 1   
   104   98  104 1   
   105   98  105 1   
   106   99  106 1   
   107   99  107 1   
   108   99  108 1   
   109  100  109 1   
   110  100  110 1   
   111  100  111 1   
   112  112  113 1   
   113  112  119 1   
   114  113  114 1   
   115  113  116 1   
   116  113  120 1   
   117  114  115 2   
   118  114  126 1   
   119  116  117 1   
   120  116  118 1   
   121  116  121 1   
   122  117  123 1   
   123  117  124 1   
   124  117  125 1   
   125  118  122 1   
   126  126  127 1   
   127  126  133 1   
   128  127  128 1   
   129  127  130 1   
   130  127  134 1   
   131  128  129 2   
   132  128  140 1   
   133  130  131 1   
   134  130  132 1   
   135  130  135 1   
   136  131  137 1   
   137  131  138 1   
   138  131  139 1   
   139  132  136 1   
   140  140  141 1   
   141  140  149 1   
   142  141  142 1   
   143  141  144 1   
   144  141  150 1   
   145  142  143 2   
   146  142  162 1   
   147  144  145 1   
   148  144  151 1   
   149  144  152 1   
   150  145  146 1   
   151  145  153 1   
   152  145  154 1   
   153  146  147 1   
   154  146  155 1   
   155  146  156 1   
   156  147  148 1   
   157  147  157 1   
   158  147  158 1   
   159  148  159 1   
   160  148  160 1   
   161  148  161 1   
   162  162  163 1   
   163  162  171 1   
   164  163  164 1   
   165  163  166 1   
   166  163  172 1   
   167  164  165 2   
   168  164  177 1   
   169  166  167 1   
   170  166  173 1   
   171  166  174 1   
   172  167  168 1   
   173  167  175 1   
   174  167  176 1   
   175  168  169 1   
   176  168  170 1   
   177  177  178 1   
   178  177  182 1   
   179  178  179 1   
   180  178  180 1   
   181  178  181 1   
   182  184  185 1   
   183  184  186 1   
   184  187  188 1   
   185  187  189 1   
   186  190  191 1   
   187  190  192 1   
@<TRIPOS>SUBSTRUCTURE
     1 MOL         1 TEMP              0 ****  ****    0 ROOT
