@<TRIPOS>MOLECULE
MOL
  186   183     1     0     0
SMALL
resp


@<TRIPOS>ATOM
      1 C1         11.6750    4.8430   -2.0730 c3        1 MOL     -0.349610
      2 C2         11.0210    3.6850   -1.3100 c         1 MOL      0.565105
      3 O1         11.3930    2.5080   -1.5050 o         1 MOL     -0.578702
      4 H1         12.6420    4.5230   -2.4590 hc        1 MOL      0.100207
      5 H2         11.0330    5.1390   -2.9040 hc        1 MOL      0.100207
      6 H3         11.8130    5.6890   -1.4010 hc        1 MOL      0.100207
      7 N1          9.9570    3.9580   -0.5310 n         1 MOL      0.001441
      8 C3          9.2710    2.9440    0.2570 c3        1 MOL     -0.586267
      9 C4          7.8920    2.5050   -0.2910 c         1 MOL      0.635996
     10 O2          6.9830    3.3090   -0.3910 o         1 MOL     -0.647069
     11 C5          9.0550    3.3490    1.7130 c3        1 MOL     -0.137774
     12 C6          8.7990    4.8700    1.8570 c         1 MOL      0.844585
     13 O3          9.5600    5.5390    2.5390 o         1 MOL     -0.736028
     14 O4          7.7690    5.3520    1.3370 o         1 MOL     -0.736028
     15 H4          9.5330    4.8770   -0.5780 hn        1 MOL      0.079137
     16 H5          9.8930    2.0510    0.2790 h1        1 MOL      0.225576
     17 H6          9.9800    3.2520    2.2880 hc        1 MOL      0.110025
     18 H7          8.1710    2.8180    2.0590 hc        1 MOL      0.110025
     19 N2          7.6660    1.1620   -0.3400 n         1 MOL     -0.418936
     20 C7          6.3670    0.6710   -0.3370 c3        1 MOL      0.049332
     21 C8          5.7570    0.7680    1.0840 c         1 MOL      0.546169
     22 O5          6.5300    0.7380    2.0610 o         1 MOL     -0.533409
     23 C9          6.1870   -0.6790   -1.0110 c3        1 MOL     -0.153949
     24 C10         6.9550   -1.8750   -0.3710 c3        1 MOL      0.124476
     25 C11         7.2330   -3.0120   -1.4000 c3        1 MOL     -0.087081
     26 C12         7.3590   -4.3450   -0.7000 c3        1 MOL      0.093192
     27 N3          8.3160   -5.2450   -1.4290 n4        1 MOL     -0.238794
     28 H8          8.3710    0.5120   -0.0390 hn        1 MOL      0.275967
     29 H9          5.8390    1.3700   -0.9870 h1        1 MOL      0.047316
     30 H10         6.6260   -0.5650   -1.9990 hc        1 MOL      0.047615
     31 H11         5.1420   -0.9220   -1.1830 hc        1 MOL      0.047615
     32 H12         6.3420   -2.2560    0.4400 hc        1 MOL      0.018663
     33 H13         7.9430   -1.6790    0.0350 hc        1 MOL      0.018663
     34 H14         8.0820   -2.8030   -2.0540 hc        1 MOL      0.010868
     35 H15         6.3170   -3.0650   -1.9770 hc        1 MOL      0.010868
     36 H16         6.3770   -4.8010   -0.6350 hx        1 MOL      0.069131
     37 H17         7.7390   -4.0610    0.2760 hx        1 MOL      0.069131
     38 H18         8.1360   -5.3930   -2.4160 hn        1 MOL      0.256270
     39 H19         9.2080   -4.7750   -1.3740 hn        1 MOL      0.256270
     40 H20         8.4010   -6.1250   -0.9620 hn        1 MOL      0.256270
     41 N4          4.4320    0.8870    1.1910 n         1 MOL     -0.343256
     42 C13         3.6730    1.2790    2.3630 c3        1 MOL      0.068476
     43 C14         2.7090    0.2410    2.9860 c         1 MOL      0.419597
     44 O6          1.9620    0.6940    3.8450 o         1 MOL     -0.500257
     45 C15         2.9330    2.6660    2.1090 c3        1 MOL      0.273219
     46 C16         3.7930    3.7790    1.5790 c         1 MOL      0.535623
     47 O7          4.9500    4.0070    2.0160 o         1 MOL     -0.758576
     48 O8          3.3920    4.4380    0.5900 o         1 MOL     -0.758576
     49 H21         3.9120    0.8490    0.3240 hn        1 MOL      0.188862
     50 H22         4.4280    1.5770    3.0850 h1        1 MOL      0.107159
     51 H23         2.4490    2.8420    3.0730 hc        1 MOL     -0.027034
     52 H24         2.0620    2.5160    1.4730 hc        1 MOL     -0.027034
     53 N5          2.5860   -1.0450    2.6830 n         1 MOL     -0.394112
     54 C17         3.4850   -1.8080    1.7660 c3        1 MOL     -0.198578
     55 C18         3.2690   -3.2900    1.8320 c         1 MOL      0.560390
     56 O9          3.6730   -4.0070    0.9050 o         1 MOL     -0.573330
     57 H25         1.7620   -1.5030    3.0300 hn        1 MOL      0.298327
     58 H26         4.5350   -1.5420    1.8830 h1        1 MOL      0.109003
     59 H27         3.2680   -1.5210    0.7330 h1        1 MOL      0.109003
     60 N6          2.6850   -3.7980    2.9260 n         1 MOL     -0.375870
     61 C19         2.4910   -5.2540    3.1530 c3        1 MOL     -0.097188
     62 C20         1.8340   -6.0030    1.9150 c         1 MOL      0.538155
     63 O10         2.2480   -7.1020    1.5460 o         1 MOL     -0.529362
     64 C21         1.6390   -5.4980    4.4370 c3        1 MOL     -0.107082
     65 C22         1.9210   -4.7620    5.7320 c         1 MOL      0.690274
     66 O11         0.9900   -4.3770    6.4750 o         1 MOL     -0.664368
     67 O12         3.1600   -4.5360    6.0090 o         1 MOL     -0.664368
     68 H28         2.2970   -3.1460    3.5900 hn        1 MOL      0.297065
     69 H29         3.4810   -5.7070    3.2370 h1        1 MOL      0.112530
     70 H30         1.5710   -6.5580    4.6690 hc        1 MOL      0.019288
     71 H31         0.6230   -5.2110    4.1650 hc        1 MOL      0.019288
     72 N7          0.8600   -5.2880    1.3250 n         1 MOL     -0.382695
     73 C23         0.0140   -5.6130    0.1200 c3        1 MOL     -0.046154
     74 C24         0.2890   -4.7070   -1.1200 c         1 MOL      0.486539
     75 O13        -0.6900   -4.3590   -1.7940 o         1 MOL     -0.556292
     76 H32         0.6160   -4.4320    1.8060 hn        1 MOL      0.264430
     77 H33        -1.0400   -5.6270    0.3730 h1        1 MOL      0.096094
     78 H34         0.2600   -6.6000   -0.2620 h1        1 MOL      0.096094
     79 N8          1.4610   -4.1680   -1.2900 n         1 MOL     -0.323870
     80 C25         1.8440   -3.2940   -2.3960 c3        1 MOL     -0.000333
     81 C26         1.4890   -1.8350   -2.1880 c         1 MOL      0.298115
     82 O14         2.0130   -1.1200   -1.3380 o         1 MOL     -0.427061
     83 C27         3.3310   -3.3550   -2.7540 c3        1 MOL      0.383391
     84 C28         3.7820   -4.7840   -2.9760 c3        1 MOL     -0.637699
     85 O15         3.5070   -2.7250   -3.9700 oh        1 MOL     -0.660394
     86 H35         2.1340   -4.3550   -0.5660 hn        1 MOL      0.220498
     87 H36         1.2470   -3.5920   -3.2550 h1        1 MOL      0.085746
     88 H37         3.9070   -2.9160   -1.9400 h1        1 MOL      0.058787
     89 H38         4.0580   -3.2730   -4.5280 ho        1 MOL      0.415567
     90 H39         3.1990   -5.2100   -3.7940 hc        1 MOL      0.167094
     91 H40         4.8480   -4.8090   -3.1790 hc        1 MOL      0.167094
     92 H41         3.6390   -5.4120   -2.0880 hc        1 MOL      0.167094
     93 N9          0.4700   -1.3800   -2.9380 n         1 MOL     -0.083445
     94 C29        -0.2210   -0.0500   -2.9000 c3        1 MOL     -0.075748
     95 C30        -1.5140    0.0120   -2.1540 c         1 MOL      0.574761
     96 O16        -1.7770    0.9390   -1.4430 o         1 MOL     -0.509118
     97 C31        -0.4340    0.5020   -4.3690 c3        1 MOL      0.239122
     98 C32         0.8200    0.1300   -5.2880 c3        1 MOL     -0.029952
     99 C33        -0.6920    1.9960   -4.4600 c3        1 MOL     -0.487591
    100 C34         2.1460    0.8090   -4.8820 c3        1 MOL     -0.053522
    101 H42         0.0610   -2.0430   -3.5920 hn        1 MOL      0.182865
    102 H43         0.4520    0.6400   -2.4060 h1        1 MOL      0.060092
    103 H44        -1.2410   -0.1220   -4.7680 hc        1 MOL     -0.043160
    104 H45         0.5910    0.4550   -6.3090 hc        1 MOL      0.009912
    105 H46         1.0400   -0.9290   -5.4420 hc        1 MOL      0.009912
    106 H47        -0.8380    2.2080   -5.5190 hc        1 MOL      0.135631
    107 H48        -1.5190    2.2820   -3.8080 hc        1 MOL      0.135631
    108 H49         0.1210    2.5690   -4.0130 hc        1 MOL      0.135631
    109 H50         2.0270    1.8860   -4.7780 hc        1 MOL      0.006013
    110 H51         2.5630    0.3970   -3.9600 hc        1 MOL      0.006013
    111 H52         2.8890    0.7310   -5.6730 hc        1 MOL      0.006013
    112 N10        -2.2740   -1.0790   -2.1930 n         1 MOL     -0.561238
    113 C35        -3.3230   -1.4630   -1.1870 c3        1 MOL      0.130088
    114 C36        -4.5220   -2.1000   -1.8310 c         1 MOL      0.645582
    115 O17        -4.3820   -2.7330   -2.8800 o         1 MOL     -0.556293
    116 C37        -2.6610   -2.3680   -0.1260 c3        1 MOL      0.457690
    117 C38        -1.3660   -1.8530    0.4430 c3        1 MOL     -0.302284
    118 O18        -3.4510   -2.6990    0.9320 oh        1 MOL     -0.707215
    119 H53        -2.0370   -1.8630   -2.7970 hn        1 MOL      0.279933
    120 H54        -3.6830   -0.5290   -0.7410 h1        1 MOL      0.024891
    121 H55        -2.3680   -3.2410   -0.7170 h1        1 MOL     -0.056470
    122 H56        -2.8960   -3.0990    1.6100 ho        1 MOL      0.439953
    123 H57        -1.4890   -0.8840    0.9210 hc        1 MOL      0.063003
    124 H58        -1.0870   -2.5510    1.2340 hc        1 MOL      0.063003
    125 H59        -0.5850   -1.8030   -0.3090 hc        1 MOL      0.063003
    126 N11        -5.6730   -1.9830   -1.2020 n         1 MOL     -0.693585
    127 C39        -6.9540   -2.6170   -1.5870 c3        1 MOL      0.133734
    128 C40        -8.1850   -1.7680   -1.3720 c         1 MOL      0.629142
    129 O19        -9.1060   -1.9240   -2.1560 o         1 MOL     -0.581938
    130 C41        -7.0590   -4.0840   -0.9300 c3        1 MOL      0.297472
    131 C42        -8.3150   -4.9110   -1.3220 c3        1 MOL     -0.420190
    132 O20        -7.1390   -4.0170    0.4870 oh        1 MOL     -0.624782
    133 H60        -5.6480   -1.5060   -0.3070 hn        1 MOL      0.350070
    134 H61        -6.9410   -2.8930   -2.6440 h1        1 MOL      0.079712
    135 H62        -6.1900   -4.6560   -1.2690 h1        1 MOL      0.038329
    136 H63        -7.0150   -4.9310    0.7670 ho        1 MOL      0.400697
    137 H64        -8.2610   -5.8710   -0.8140 hc        1 MOL      0.104957
    138 H65        -9.2280   -4.3830   -1.0660 hc        1 MOL      0.104957
    139 H66        -8.2700   -5.0210   -2.4050 hc        1 MOL      0.104957
    140 N12        -8.1480   -0.8360   -0.4560 n         1 MOL     -0.438313
    141 C43        -9.0980    0.2480   -0.1890 c3        1 MOL     -0.020429
    142 C44        -8.5890    1.3420    0.7370 c         1 MOL      0.485736
    143 O21        -8.0150    1.0430    1.7870 o         1 MOL     -0.485028
    144 C45       -10.3570   -0.4040    0.3730 c3        1 MOL     -0.227114
    145 C46       -11.4910    0.6360    0.3870 c3        1 MOL     -0.020474
    146 C47       -12.8120    0.1130    0.8090 c3        1 MOL      0.029777
    147 C48       -13.8540    1.2330    1.1200 c3        1 MOL      0.004235
    148 N13       -15.1690    0.5300    1.3300 n4        1 MOL     -0.190509
    149 H67        -7.3940   -0.8630    0.2120 hn        1 MOL      0.286204
    150 H68        -9.4000    0.6910   -1.1380 h1        1 MOL      0.096325
    151 H69       -10.1190   -0.8330    1.3520 hc        1 MOL      0.118240
    152 H70       -10.5480   -1.3080   -0.1950 hc        1 MOL      0.118240
    153 H71       -11.4970    1.1980   -0.5480 hc        1 MOL      0.040862
    154 H72       -11.2120    1.3500    1.1640 hc        1 MOL      0.040862
    155 H73       -12.6400   -0.4940    1.7040 hc        1 MOL      0.016459
    156 H74       -13.1460   -0.4970   -0.0240 hc        1 MOL      0.016459
    157 H75       -13.9130    1.8890    0.2470 hx        1 MOL      0.084853
    158 H76       -13.5690    1.7410    2.0440 hx        1 MOL      0.084853
    159 H77       -15.1430   -0.2070    2.0090 hn        1 MOL      0.232329
    160 H78       -15.8460    1.2390    1.5740 hn        1 MOL      0.232329
    161 H79       -15.4350    0.1290    0.4330 hn        1 MOL      0.232329
    162 N14        -8.6630    2.5880    0.3000 n         1 MOL     -0.417759
    163 C49        -8.0670    3.7450    1.0960 c3        1 MOL      0.089529
    164 C50        -6.5320    3.7180    1.2730 c         1 MOL      0.422917
    165 O22        -5.9910    3.8620    2.3650 o         1 MOL     -0.506730
    166 C51        -8.6720    5.0350    0.4830 c3        1 MOL      0.059975
    167 C52        -8.3680    6.2830    1.3120 c3        1 MOL     -0.189432
    168 C53        -8.8050    7.5310    0.6340 c         1 MOL      0.706363
    169 O23        -7.9130    8.1300   -0.0570 o         1 MOL     -0.652014
    170 O24        -9.9750    8.0170    0.6660 o         1 MOL     -0.652014
    171 H80        -9.2090    2.8020   -0.5200 hn        1 MOL      0.241710
    172 H81        -8.3970    3.7100    2.1340 h1        1 MOL      0.068687
    173 H82        -9.7420    4.8290    0.4170 hc        1 MOL     -0.009477
    174 H83        -8.2800    5.2180   -0.5200 hc        1 MOL     -0.009477
    175 H84        -7.3070    6.3040    1.5440 hc        1 MOL      0.042883
    176 H85        -8.9460    6.2410    2.2260 hc        1 MOL      0.042883
    177 N15        -5.7060    3.4810    0.2240 n         1 MOL     -0.334893
    178 C54        -6.0090    3.8200   -1.1830 c3        1 MOL      0.021701
    179 H86        -5.0780    3.9800   -1.7270 h1        1 MOL      0.038020
    180 H87        -6.5620    3.0010   -1.6430 h1        1 MOL      0.038020
    181 H88        -6.6090    4.7290   -1.2180 h1        1 MOL      0.038020
    182 H89        -4.7260    3.3560    0.4310 hn        1 MOL      0.290752
    183 Ca1         5.7220    5.4130   -0.0510 Ca        1 MOL      1.732133
    184 O25         4.5300    4.1080   -2.0330 oh        1 MOL     -0.830394
    185 H90         5.1240    3.5640   -2.5630 ho        1 MOL      0.419073
    186 H91         3.6750    3.6810   -2.1250 ho        1 MOL      0.419073
@<TRIPOS>BOND
     1    1    2 1   
     2    1    4 1   
     3    1    5 1   
     4    1    6 1   
     5    2    3 2   
     6    2    7 1   
     7    7    8 1   
     8    7   15 1   
     9    8    9 1   
    10    8   11 1   
    11    8   16 1   
    12    9   10 2   
    13    9   19 1   
    14   11   12 1   
    15   11   17 1   
    16   11   18 1   
    17   12   13 1   
    18   12   14 1   
    19   19   20 1   
    20   19   28 1   
    21   20   21 1   
    22   20   23 1   
    23   20   29 1   
    24   21   22 2   
    25   21   41 1   
    26   23   24 1   
    27   23   30 1   
    28   23   31 1   
    29   24   25 1   
    30   24   32 1   
    31   24   33 1   
    32   25   26 1   
    33   25   34 1   
    34   25   35 1   
    35   26   27 1   
    36   26   36 1   
    37   26   37 1   
    38   27   38 1   
    39   27   39 1   
    40   27   40 1   
    41   41   42 1   
    42   41   49 1   
    43   42   43 1   
    44   42   45 1   
    45   42   50 1   
    46   43   44 2   
    47   43   53 1   
    48   45   46 1   
    49   45   51 1   
    50   45   52 1   
    51   46   47 1   
    52   46   48 1   
    53   53   54 1   
    54   53   57 1   
    55   54   55 1   
    56   54   58 1   
    57   54   59 1   
    58   55   56 2   
    59   55   60 1   
    60   60   61 1   
    61   60   68 1   
    62   61   62 1   
    63   61   64 1   
    64   61   69 1   
    65   62   63 2   
    66   62   72 1   
    67   64   65 1   
    68   64   70 1   
    69   64   71 1   
    70   65   66 1   
    71   65   67 1   
    72   72   73 1   
    73   72   76 1   
    74   73   74 1   
    75   73   77 1   
    76   73   78 1   
    77   74   75 2   
    78   74   79 1   
    79   79   80 1   
    80   79   86 1   
    81   80   81 1   
    82   80   83 1   
    83   80   87 1   
    84   81   82 2   
    85   81   93 1   
    86   83   84 1   
    87   83   85 1   
    88   83   88 1   
    89   84   90 1   
    90   84   91 1   
    91   84   92 1   
    92   85   89 1   
    93   93   94 1   
    94   93  101 1   
    95   94   95 1   
    96   94   97 1   
    97   94  102 1   
    98   95   96 2   
    99   95  112 1   
   100   97   98 1   
   101   97   99 1   
   102   97  103 1   
   103   98  100 1   
   104   98  104 1   
   105   98  105 1   
   106   99  106 1   
   107   99  107 1   
   108   99  108 1   
   109  100  109 1   
   110  100  110 1   
   111  100  111 1   
   112  112  113 1   
   113  112  119 1   
   114  113  114 1   
   115  113  116 1   
   116  113  120 1   
   117  114  115 2   
   118  114  126 1   
   119  116  117 1   
   120  116  118 1   
   121  116  121 1   
   122  117  123 1   
   123  117  124 1   
   124  117  125 1   
   125  118  122 1   
   126  126  127 1   
   127  126  133 1   
   128  127  128 1   
   129  127  130 1   
   130  127  134 1   
   131  128  129 2   
   132  128  140 1   
   133  130  131 1   
   134  130  132 1   
   135  130  135 1   
   136  131  137 1   
   137  131  138 1   
   138  131  139 1   
   139  132  136 1   
   140  140  141 1   
   141  140  149 1   
   142  141  142 1   
   143  141  144 1   
   144  141  150 1   
   145  142  143 2   
   146  142  162 1   
   147  144  145 1   
   148  144  151 1   
   149  144  152 1   
   150  145  146 1   
   151  145  153 1   
   152  145  154 1   
   153  146  147 1   
   154  146  155 1   
   155  146  156 1   
   156  147  148 1   
   157  147  157 1   
   158  147  158 1   
   159  148  159 1   
   160  148  160 1   
   161  148  161 1   
   162  162  163 1   
   163  162  171 1   
   164  163  164 1   
   165  163  166 1   
   166  163  172 1   
   167  164  165 2   
   168  164  177 1   
   169  166  167 1   
   170  166  173 1   
   171  166  174 1   
   172  167  168 1   
   173  167  175 1   
   174  167  176 1   
   175  168  169 1   
   176  168  170 1   
   177  177  178 1   
   178  177  182 1   
   179  178  179 1   
   180  178  180 1   
   181  178  181 1   
   182  184  185 1   
   183  184  186 1   
@<TRIPOS>SUBSTRUCTURE
     1 MOL         1 TEMP              0 ****  ****    0 ROOT
