@<TRIPOS>MOLECULE
MOL
  189   185     1     0     0
SMALL
resp


@<TRIPOS>ATOM
      1 C1         -3.5450   -2.9440   -5.1540 c3        1 MOL     -0.400023
      2 C2         -4.2010   -2.4360   -3.8440 c         1 MOL      0.854099
      3 O1         -3.5610   -2.2700   -2.8080 o         1 MOL     -0.662581
      4 H1         -2.7460   -3.6440   -4.9120 hc        1 MOL      0.103159
      5 H2         -4.2940   -3.4460   -5.7660 hc        1 MOL      0.103159
      6 H3         -3.1320   -2.0990   -5.7050 hc        1 MOL      0.103159
      7 N1         -5.5210   -2.2930   -3.8500 n         1 MOL     -0.778222
      8 C3         -6.4620   -1.7840   -2.7830 c3        1 MOL      0.239573
      9 C4         -5.6920   -0.7380   -1.9710 c         1 MOL      0.258468
     10 O2         -5.2760   -0.9640   -0.8190 o         1 MOL     -0.523767
     11 C5         -7.2100   -2.8380   -2.0500 c3        1 MOL     -0.026710
     12 C6         -6.5010   -4.1020   -1.7340 c         1 MOL      0.750169
     13 O3         -5.4650   -4.0240   -1.0280 o         1 MOL     -0.737026
     14 O4         -6.9130   -5.2060   -2.1550 o         1 MOL     -0.737026
     15 H4         -6.0210   -2.6560   -4.6440 hn        1 MOL      0.350533
     16 H5         -7.2250   -1.1960   -3.2930 h1        1 MOL      0.038041
     17 H6         -8.0830   -3.1160   -2.6370 hc        1 MOL     -0.002941
     18 H7         -7.6020   -2.4340   -1.1110 hc        1 MOL     -0.002941
     19 N2         -5.5030    0.4540   -2.5690 n         1 MOL     -0.392297
     20 C7         -5.0730    1.7660   -2.0530 c3        1 MOL     -0.029401
     21 C8         -5.8710    2.3780   -0.8670 c         1 MOL      0.415595
     22 O5         -6.2490    3.5130   -0.9090 o         1 MOL     -0.529167
     23 C9         -3.5450    1.7840   -1.6330 c3        1 MOL      0.219849
     24 C10        -3.0390    3.2800   -1.3800 c3        1 MOL     -0.184725
     25 C11        -2.8170    1.2240   -2.8450 c3        1 MOL     -0.133295
     26 C12        -3.3320    4.5760   -2.1880 c3        1 MOL     -0.347515
     27 H8         -5.6870    0.5250   -3.5620 hn        1 MOL      0.287346
     28 H9         -5.1690    2.3990   -2.9330 h1        1 MOL      0.094660
     29 H10        -3.3110    1.1890   -0.7500 hc        1 MOL     -0.092246
     30 H11        -1.9520    3.2400   -1.4280 hc        1 MOL      0.132066
     31 H12        -3.3760    3.3800   -0.3530 hc        1 MOL      0.132066
     32 H13        -1.7740    1.1830   -2.5100 hc        1 MOL      0.015298
     33 H14        -3.0610    0.1820   -3.0330 hc        1 MOL      0.015298
     34 H15        -2.8810    1.8290   -3.7520 hc        1 MOL      0.015298
     35 H16        -3.8460    4.1830   -3.0680 hc        1 MOL      0.088720
     36 H17        -3.9870    5.2370   -1.6190 hc        1 MOL      0.088720
     37 H18        -2.4510    5.1750   -2.4230 hc        1 MOL      0.088720
     38 N3         -6.3650    1.5010    0.0310 n         1 MOL     -0.157529
     39 C13        -7.3300    1.9160    1.0050 c3        1 MOL     -0.048111
     40 C14        -6.9020    3.1280    1.9190 c         1 MOL      0.531173
     41 O6         -7.7220    3.9900    2.3330 o         1 MOL     -0.587935
     42 C15        -7.7400    0.7920    2.0110 c3        1 MOL     -0.059001
     43 C16        -8.0870   -0.4840    1.2370 c         1 MOL      0.807192
     44 O7         -7.7130   -1.5510    1.8130 o         1 MOL     -0.723852
     45 O8         -8.9920   -0.4250    0.4030 o         1 MOL     -0.723852
     46 H19        -5.8640    0.6210    0.0770 hn        1 MOL      0.221724
     47 H20        -8.2760    2.1550    0.5270 h1        1 MOL      0.061277
     48 H21        -8.6510    1.0850    2.5210 hc        1 MOL      0.009325
     49 H22        -6.9750    0.5080    2.7300 hc        1 MOL      0.009325
     50 N4         -5.6490    3.2700    2.3540 n         1 MOL     -0.490898
     51 C17        -4.5600    2.2990    2.5640 c3        1 MOL      0.182770
     52 C18        -4.5560    1.5650    3.9130 c         1 MOL      0.439581
     53 O9         -5.5370    1.5680    4.6410 o         1 MOL     -0.524839
     54 H23        -5.4620    4.1560    2.8190 hn        1 MOL      0.289414
     55 H24        -3.6150    2.8240    2.3950 h1        1 MOL      0.015037
     56 H25        -4.4300    1.5330    1.8050 h1        1 MOL      0.015037
     57 N5         -3.4330    0.9340    4.3260 n         1 MOL     -0.418557
     58 C19        -2.1960    0.7330    3.6690 c3        1 MOL      0.042650
     59 C20        -2.1990    0.1560    2.2020 c         1 MOL      0.718217
     60 O10        -3.1400   -0.5240    1.7460 o         1 MOL     -0.669840
     61 C21        -1.3140   -0.2120    4.5970 c3        1 MOL     -0.272185
     62 C22        -1.0750    0.2850    6.0430 c         1 MOL      0.762625
     63 O11        -0.3720    1.3240    6.1810 o         1 MOL     -0.730309
     64 O12        -1.5650   -0.3460    6.9570 o         1 MOL     -0.730309
     65 H26        -3.5970    0.5370    5.2440 hn        1 MOL      0.302958
     66 H27        -1.6170    1.6670    3.6730 h1        1 MOL      0.021544
     67 H28        -0.2910   -0.3410    4.2470 hc        1 MOL      0.061652
     68 H29        -1.6660   -1.2390    4.6780 hc        1 MOL      0.061652
     69 N6         -1.1940    0.4830    1.3490 n         1 MOL     -0.584277
     70 C23         0.0480    1.2850    1.5970 c3        1 MOL      0.143995
     71 C24        -0.1140    2.7640    1.1840 c         1 MOL      0.354683
     72 O13        -0.9590    3.4930    1.7210 o         1 MOL     -0.499035
     73 H30        -1.2520    0.1120    0.4160 hn        1 MOL      0.294735
     74 H31         0.8970    0.9040    1.0250 h1        1 MOL      0.041404
     75 H32         0.3600    1.1130    2.6210 h1        1 MOL      0.041404
     76 N7          0.7130    3.2010    0.2710 n         1 MOL     -0.429004
     77 C25         0.9280    4.6100   -0.1430 c3        1 MOL      0.046337
     78 C26         1.4240    4.7480   -1.5950 c         1 MOL      0.468611
     79 O14         1.0080    5.6720   -2.3240 o         1 MOL     -0.522337
     80 C27         1.9990    5.2470    0.6670 c3        1 MOL     -0.095798
     81 C28         1.4500    5.4110    2.1020 c3        1 MOL     -0.064774
     82 C29         2.3980    6.1790    2.9820 c         1 MOL      0.572693
     83 N8          2.1840    5.9620    4.2690 n         1 MOL     -0.774697
     84 O15         3.0900    7.1030    2.5820 o         1 MOL     -0.554962
     85 H33         1.4240    2.5800   -0.0720 hn        1 MOL      0.246120
     86 H34        -0.0060    5.1790   -0.1690 h1        1 MOL      0.109050
     87 H35         2.1550    6.2870    0.3620 hc        1 MOL      0.047145
     88 H36         2.9580    4.7400    0.5770 hc        1 MOL      0.047145
     89 H37         1.2150    4.4360    2.5070 hc        1 MOL      0.085152
     90 H38         0.5150    5.9770    2.0900 hc        1 MOL      0.085152
     91 H39         1.5180    5.2690    4.5820 hn        1 MOL      0.360490
     92 H40         2.7980    6.4090    4.9240 hn        1 MOL      0.360490
     93 N9          2.1880    3.7880   -2.1020 n         1 MOL     -0.291400
     94 C30         2.6900    3.7660   -3.4580 c3        1 MOL     -0.239486
     95 C31         4.2010    3.4610   -3.6630 c         1 MOL      0.645632
     96 O16         4.6940    3.4350   -4.7730 o         1 MOL     -0.540178
     97 C32         1.8020    3.0090   -4.4780 c3        1 MOL      0.336445
     98 C33         0.3790    3.4420   -4.6130 c3        1 MOL     -0.292652
     99 C34         1.8430    1.4520   -4.1200 c3        1 MOL     -0.292652
    100 H41         2.3870    2.9970   -1.5220 hn        1 MOL      0.278446
    101 H42         2.5940    4.7850   -3.8440 h1        1 MOL      0.124217
    102 H43         2.2890    3.1720   -5.4400 hc        1 MOL     -0.027893
    103 H44         0.2570    4.4920   -4.8560 hc        1 MOL      0.069860
    104 H45        -0.0010    2.8000   -5.4200 hc        1 MOL      0.069860
    105 H46        -0.0730    3.1920   -3.6550 hc        1 MOL      0.069860
    106 H47         2.8390    1.0450   -4.3050 hc        1 MOL      0.069860
    107 H48         1.6760    1.3200   -3.0520 hc        1 MOL      0.069860
    108 H49         1.0850    0.8250   -4.6050 hc        1 MOL      0.069860
    109 N10         4.9490    3.0950   -2.5420 n         1 MOL     -0.574545
    110 C35         6.3810    2.6840   -2.5900 c3        1 MOL      0.214477
    111 C36         6.8710    1.4900   -1.6410 c         1 MOL      0.422771
    112 O17         8.0500    1.3830   -1.3110 o         1 MOL     -0.506291
    113 C37         7.1500    3.9840   -2.3530 c3        1 MOL     -0.299359
    114 C38         7.0890    4.7710   -0.9880 c         1 MOL      0.727353
    115 N11         8.2300    5.3650   -0.6120 n         1 MOL     -0.874670
    116 O18         6.1730    4.6740   -0.2140 o         1 MOL     -0.520385
    117 H50         4.5270    3.3130   -1.6500 hn        1 MOL      0.255660
    118 H51         6.6150    2.2810   -3.5750 h1        1 MOL      0.082194
    119 H52         6.8410    4.7170   -3.0990 hc        1 MOL      0.069117
    120 H53         8.1930    3.7310   -2.5840 hc        1 MOL      0.069117
    121 H54         8.9980    5.3090   -1.2680 hn        1 MOL      0.386913
    122 H55         8.3880    5.5790    0.3690 hn        1 MOL      0.386913
    123 N12         5.9590    0.7560   -0.9450 n         1 MOL     -0.317996
    124 C39         6.1970   -0.4350   -0.2240 c3        1 MOL      0.001066
    125 C40         4.9780   -1.3720    0.0130 c         1 MOL      0.426547
    126 O19         3.8720   -0.9600    0.2690 o         1 MOL     -0.442764
    127 C41         6.8030   -0.0310    1.1660 c3        1 MOL     -0.051254
    128 C42         7.2020   -1.2300    2.0330 ca        1 MOL      0.004334
    129 C43         6.4860   -1.4530    3.1950 ca        1 MOL     -0.254838
    130 C44         8.2690   -2.1020    1.5770 ca        1 MOL     -0.254838
    131 C45         6.7720   -2.6300    3.9560 ca        1 MOL     -0.169454
    132 C46         8.3440   -3.3030    2.2720 ca        1 MOL     -0.169454
    133 C47         7.6340   -3.5780    3.4520 ca        1 MOL      0.315745
    134 O20         7.9140   -4.6400    4.2150 oh        1 MOL     -0.527438
    135 H56         4.9740    0.9520   -1.1010 hn        1 MOL      0.202779
    136 H57         6.9460   -1.0000   -0.7780 h1        1 MOL      0.050882
    137 H58         6.1890    0.6570    1.7560 hc        1 MOL      0.073757
    138 H59         7.6910    0.5830    0.9930 hc        1 MOL      0.073757
    139 H60         5.7950   -0.7550    3.6420 ha        1 MOL      0.158684
    140 H61         8.7560   -1.9710    0.6230 ha        1 MOL      0.158684
    141 H62         6.3400   -2.7560    4.9410 ha        1 MOL      0.125869
    142 H63         9.0050   -4.0800    1.9160 ha        1 MOL      0.125869
    143 H64         7.3890   -4.6650    5.0180 ho        1 MOL      0.404713
    144 N13         5.3010   -2.6940    0.1230 n         1 MOL     -0.447362
    145 C48         4.3650   -3.7820    0.4550 c3        1 MOL      0.223662
    146 C49         3.2140   -4.0770   -0.5450 c         1 MOL      0.404269
    147 O21         2.7330   -5.1810   -0.6850 o         1 MOL     -0.488393
    148 C50         3.7430   -3.7040    1.8050 c3        1 MOL      0.309671
    149 C51         3.2880   -5.0650    2.3560 c3        1 MOL     -0.438588
    150 C52         4.4390   -6.0820    2.6160 c         1 MOL      0.868946
    151 O22         4.8070   -6.8030    1.7110 o         1 MOL     -0.762330
    152 O23         4.8650   -6.2470    3.7880 o         1 MOL     -0.762330
    153 H65         6.2100   -2.9850   -0.2200 hn        1 MOL      0.272570
    154 H66         4.9870   -4.6800    0.5070 h1        1 MOL      0.022436
    155 H67         3.0120   -2.9060    1.8890 hc        1 MOL     -0.050432
    156 H68         4.5210   -3.5210    2.5580 hc        1 MOL     -0.050432
    157 H69         2.4310   -5.4300    1.7940 hc        1 MOL      0.059443
    158 H70         2.9440   -4.7790    3.3430 hc        1 MOL      0.059443
    159 N14         2.8730   -3.0710   -1.3430 n         1 MOL     -0.492790
    160 C53         1.7200   -3.0150   -2.2830 c3        1 MOL     -0.056302
    161 C54         2.0310   -3.6110   -3.6470 c         1 MOL      0.485869
    162 O24         1.1860   -3.7250   -4.5090 o         1 MOL     -0.550980
    163 C55         1.3570   -1.5410   -2.4760 c3        1 MOL     -0.275832
    164 C56         0.7110   -1.0660   -1.1730 c3        1 MOL      0.644881
    165 C57        -0.5460   -1.7940   -0.7190 c         1 MOL      0.302544
    166 O25        -0.5670   -2.8560   -0.0980 o         1 MOL     -0.522486
    167 O26        -1.6000   -1.1600   -0.8270 o         1 MOL     -0.522486
    168 H71         3.4180   -2.2260   -1.2270 hn        1 MOL      0.231266
    169 H72         0.9230   -3.6670   -1.9280 h1        1 MOL      0.178272
    170 H73         0.5430   -1.4450   -3.2000 hc        1 MOL      0.060508
    171 H74         2.2380   -0.9420   -2.7110 hc        1 MOL      0.060508
    172 H75         0.5420   -0.0270   -1.4690 hc        1 MOL     -0.180930
    173 H76         1.4330   -0.9380   -0.3600 hc        1 MOL     -0.180930
    174 N15         3.2910   -4.0400   -3.8820 n         1 MOL     -0.186821
    175 C58         3.8200   -4.7730   -5.0470 c3        1 MOL     -0.187282
    176 H77         4.6310   -5.4270   -4.7270 h1        1 MOL      0.084572
    177 H78         3.0250   -5.3710   -5.4930 h1        1 MOL      0.084572
    178 H79         4.1970   -4.0620   -5.7840 h1        1 MOL      0.084572
    179 H80         3.8180   -3.9000   -3.0420 hn        1 MOL      0.173848
    180 Ca1        -3.4970   -2.6690   -0.0500 Ca        1 MOL      1.836609
    181 O27        -5.3540   -2.8020    2.1020 oh        1 MOL     -0.938156
    182 H81        -6.1010   -2.2280    2.0150 ho        1 MOL      0.436564
    183 H82        -5.1160   -2.7610    3.0250 ho        1 MOL      0.436564
    184 O28        -2.4400   -3.3420    2.4780 oh        1 MOL     -0.938156
    185 H83        -2.1160   -4.2380    2.4460 ho        1 MOL      0.436564
    186 H84        -2.5930   -3.1740    3.4070 ho        1 MOL      0.436564
    187 O29        -2.8910   -4.9910   -1.1810 oh        1 MOL     -0.938156
    188 H85        -2.1460   -5.5840   -1.2140 ho        1 MOL      0.436564
    189 H86        -3.5520   -5.4010   -1.7270 ho        1 MOL      0.436564
@<TRIPOS>BOND
     1    1    2 1   
     2    1    4 1   
     3    1    5 1   
     4    1    6 1   
     5    2    3 2   
     6    2    7 1   
     7    7    8 1   
     8    7   15 1   
     9    8    9 1   
    10    8   11 1   
    11    8   16 1   
    12    9   10 2   
    13    9   19 1   
    14   11   12 1   
    15   11   17 1   
    16   11   18 1   
    17   12   13 1   
    18   12   14 1   
    19   19   20 1   
    20   19   27 1   
    21   20   21 1   
    22   20   23 1   
    23   20   28 1   
    24   21   22 2   
    25   21   38 1   
    26   23   24 1   
    27   23   25 1   
    28   23   29 1   
    29   24   26 1   
    30   24   30 1   
    31   24   31 1   
    32   25   32 1   
    33   25   33 1   
    34   25   34 1   
    35   26   35 1   
    36   26   36 1   
    37   26   37 1   
    38   38   39 1   
    39   38   46 1   
    40   39   40 1   
    41   39   42 1   
    42   39   47 1   
    43   40   41 2   
    44   40   50 1   
    45   42   43 1   
    46   42   48 1   
    47   42   49 1   
    48   43   44 1   
    49   43   45 1   
    50   50   51 1   
    51   50   54 1   
    52   51   52 1   
    53   51   55 1   
    54   51   56 1   
    55   52   53 2   
    56   52   57 1   
    57   57   58 1   
    58   57   65 1   
    59   58   59 1   
    60   58   61 1   
    61   58   66 1   
    62   59   60 2   
    63   59   69 1   
    64   61   62 1   
    65   61   67 1   
    66   61   68 1   
    67   62   63 1   
    68   62   64 1   
    69   69   70 1   
    70   69   73 1   
    71   70   71 1   
    72   70   74 1   
    73   70   75 1   
    74   71   72 2   
    75   71   76 1   
    76   76   77 1   
    77   76   85 1   
    78   77   78 1   
    79   77   80 1   
    80   77   86 1   
    81   78   79 2   
    82   78   93 1   
    83   80   81 1   
    84   80   87 1   
    85   80   88 1   
    86   81   82 1   
    87   81   89 1   
    88   81   90 1   
    89   82   83 1   
    90   82   84 2   
    91   83   91 1   
    92   83   92 1   
    93   93   94 1   
    94   93  100 1   
    95   94   95 1   
    96   94   97 1   
    97   94  101 1   
    98   95   96 2   
    99   95  109 1   
   100   97   98 1   
   101   97   99 1   
   102   97  102 1   
   103   98  103 1   
   104   98  104 1   
   105   98  105 1   
   106   99  106 1   
   107   99  107 1   
   108   99  108 1   
   109  109  110 1   
   110  109  117 1   
   111  110  111 1   
   112  110  113 1   
   113  110  118 1   
   114  111  112 2   
   115  111  123 1   
   116  113  114 1   
   117  113  119 1   
   118  113  120 1   
   119  114  115 1   
   120  114  116 2   
   121  115  121 1   
   122  115  122 1   
   123  123  124 1   
   124  123  135 1   
   125  124  125 1   
   126  124  127 1   
   127  124  136 1   
   128  125  126 2   
   129  125  144 1   
   130  127  128 1   
   131  127  137 1   
   132  127  138 1   
   133  128  129 ar  
   134  128  130 ar  
   135  129  131 ar  
   136  129  139 1   
   137  130  132 ar  
   138  130  140 1   
   139  131  133 ar  
   140  131  141 1   
   141  132  133 ar  
   142  132  142 1   
   143  133  134 1   
   144  134  143 1   
   145  144  145 1   
   146  144  153 1   
   147  145  146 1   
   148  145  148 1   
   149  145  154 1   
   150  146  147 2   
   151  146  159 1   
   152  148  149 1   
   153  148  155 1   
   154  148  156 1   
   155  149  150 1   
   156  149  157 1   
   157  149  158 1   
   158  150  151 1   
   159  150  152 1   
   160  159  160 1   
   161  159  168 1   
   162  160  161 1   
   163  160  163 1   
   164  160  169 1   
   165  161  162 2   
   166  161  174 1   
   167  163  164 1   
   168  163  170 1   
   169  163  171 1   
   170  164  165 1   
   171  164  172 1   
   172  164  173 1   
   173  165  166 1   
   174  165  167 1   
   175  174  175 1   
   176  174  179 1   
   177  175  176 1   
   178  175  177 1   
   179  175  178 1   
   180  181  182 1   
   181  181  183 1   
   182  184  185 1   
   183  184  186 1   
   184  187  188 1   
   185  187  189 1   
@<TRIPOS>SUBSTRUCTURE
     1 MOL         1 TEMP              0 ****  ****    0 ROOT
