@<TRIPOS>MOLECULE
MOL
  192   187     1     0     0
SMALL
resp


@<TRIPOS>ATOM
      1 C1         -9.2140    0.4020   -2.0320 c3        1 MOL     -0.372150
      2 C2         -8.1890   -0.2420   -1.1520 c         1 MOL      0.794239
      3 O1         -7.0270   -0.4850   -1.4760 o         1 MOL     -0.744273
      4 H1         -8.7130    0.9820   -2.8080 hc        1 MOL      0.095492
      5 H2         -9.8310   -0.3680   -2.4960 hc        1 MOL      0.095492
      6 H3         -9.8430    1.0620   -1.4340 hc        1 MOL      0.095492
      7 N1         -8.5540   -0.5490    0.0570 n         1 MOL     -0.701003
      8 C3         -7.6110   -0.8660    1.1650 c3        1 MOL      0.394045
      9 C4         -7.1820   -2.3410    1.0470 c         1 MOL      0.287401
     10 O2         -7.5060   -3.1950    1.9380 o         1 MOL     -0.527828
     11 C5         -8.3290   -0.4920    2.5340 c3        1 MOL     -0.255496
     12 C6         -9.2490    0.7420    2.5490 c         1 MOL      0.700628
     13 O3         -9.4860    1.4030    1.5490 o         1 MOL     -0.646634
     14 O4         -9.8960    1.0070    3.5850 o         1 MOL     -0.646634
     15 H4         -9.4780   -0.1890    0.2480 hn        1 MOL      0.340535
     16 H5         -6.6630   -0.3180    1.1440 h1        1 MOL      0.018231
     17 H6         -7.4960   -0.3770    3.2220 hc        1 MOL      0.063964
     18 H7         -8.9530   -1.2990    2.9220 hc        1 MOL      0.063964
     19 N2         -6.4050   -2.6980    0.0250 n         1 MOL     -0.091000
     20 C7         -5.7380   -3.9840   -0.1290 c3        1 MOL      0.225287
     21 C8         -4.3920   -3.9810    0.5550 c         1 MOL      0.472370
     22 O5         -4.1510   -4.9220    1.3090 o         1 MOL     -0.559121
     23 C9         -5.7320   -4.4670   -1.5620 c3        1 MOL     -0.231655
     24 C10        -7.0870   -4.4340   -2.2180 c3        1 MOL      0.218034
     25 C11        -7.8960   -5.7070   -2.2300 c3        1 MOL     -0.025032
     26 C12        -9.2030   -5.4420   -3.0610 c3        1 MOL     -0.034639
     27 N3         -8.9340   -5.5900   -4.5080 n4        1 MOL     -0.182927
     28 H8         -6.2460   -1.9180   -0.5890 hn        1 MOL      0.145540
     29 H9         -6.2670   -4.7280    0.4720 h1        1 MOL      0.012884
     30 H10        -5.3660   -5.4860   -1.5460 hc        1 MOL      0.037785
     31 H11        -4.9720   -3.8450   -2.0460 hc        1 MOL      0.037785
     32 H12        -6.8990   -4.2310   -3.2760 hc        1 MOL     -0.056073
     33 H13        -7.7340   -3.6490   -1.8340 hc        1 MOL     -0.056073
     34 H14        -8.1570   -5.8470   -1.1780 hc        1 MOL      0.038072
     35 H15        -7.4450   -6.5710   -2.7120 hc        1 MOL      0.038072
     36 H16        -9.5200   -4.4160   -2.9040 hx        1 MOL      0.085975
     37 H17        -9.9810   -6.1610   -2.8070 hx        1 MOL      0.085975
     38 H18        -8.6540   -6.5420   -4.6720 hn        1 MOL      0.233174
     39 H19        -9.8330   -5.5890   -4.9780 hn        1 MOL      0.233174
     40 H20        -8.3750   -4.8980   -4.9870 hn        1 MOL      0.233174
     41 N4         -3.4840   -3.1070    0.2310 n         1 MOL     -0.413020
     42 C13        -3.5580   -1.9290   -0.7220 c3        1 MOL      0.031223
     43 C14        -3.8340   -0.6210    0.0730 c         1 MOL      0.283605
     44 O6         -3.9770   -0.5980    1.2280 o         1 MOL     -0.408894
     45 C15        -2.2590   -1.9680   -1.5330 c3        1 MOL     -0.142635
     46 C16        -0.9930   -1.9740   -0.7570 c         1 MOL      0.589815
     47 O7         -0.9060   -1.1580    0.2000 o         1 MOL     -0.624692
     48 O8         -0.1400   -2.9050   -0.9770 o         1 MOL     -0.624692
     49 H21        -2.5880   -3.3290    0.6450 hn        1 MOL      0.348451
     50 H22        -4.4520   -1.9010   -1.3530 h1        1 MOL      0.092062
     51 H23        -2.3470   -1.0660   -2.1480 hc        1 MOL      0.039496
     52 H24        -2.4040   -2.8240   -2.1950 hc        1 MOL      0.039496
     53 N5         -4.0640    0.4480   -0.7000 n         1 MOL     -0.095679
     54 C17        -4.3000    1.7700   -0.2970 c3        1 MOL     -0.238541
     55 C18        -3.1290    2.5220    0.4430 c         1 MOL      0.696724
     56 O9         -2.0470    1.9630    0.6350 o         1 MOL     -0.788108
     57 H25        -4.2110    0.2580   -1.6800 hn        1 MOL      0.239168
     58 H26        -5.1550    1.8370    0.3820 h1        1 MOL      0.103215
     59 H27        -4.5030    2.3360   -1.2100 h1        1 MOL      0.103215
     60 N6         -3.3340    3.7560    0.8920 n         1 MOL     -0.334849
     61 C19        -2.4010    4.7700    1.4730 c3        1 MOL      0.151733
     62 C20        -2.8240    6.1860    1.1590 c         1 MOL      0.473987
     63 O10        -3.9950    6.5570    0.9850 o         1 MOL     -0.533348
     64 C21        -2.4000    4.4940    2.9950 c3        1 MOL     -0.329140
     65 C22        -1.7100    3.2170    3.4470 c         1 MOL      0.719783
     66 O11        -0.7090    2.8330    2.8760 o         1 MOL     -0.684996
     67 O12        -2.2540    2.5310    4.3300 o         1 MOL     -0.684996
     68 H28        -4.2870    4.0450    0.7200 hn        1 MOL      0.209836
     69 H29        -1.4130    4.5720    1.0670 h1        1 MOL      0.100461
     70 H30        -3.4730    4.5310    3.2060 hc        1 MOL      0.094148
     71 H31        -1.8700    5.3270    3.4500 hc        1 MOL      0.094148
     72 N7         -1.8830    7.0660    1.0370 n         1 MOL     -0.427712
     73 C23        -0.4260    6.9980    1.2250 c3        1 MOL      0.036542
     74 C24         0.4470    6.5230    0.1460 c         1 MOL      0.629892
     75 O13         0.1360    6.5900   -1.0100 o         1 MOL     -0.503840
     76 H32        -2.2470    7.9990    0.9230 hn        1 MOL      0.298581
     77 H33        -0.2960    6.3520    2.0920 h1        1 MOL      0.047406
     78 H34        -0.0010    7.9250    1.6150 h1        1 MOL      0.047406
     79 N8          1.5630    5.8350    0.5760 n         1 MOL     -0.686117
     80 C25         2.3170    4.9150   -0.3020 c3        1 MOL      0.032929
     81 C26         1.4360    3.7720   -0.7440 c         1 MOL      0.800205
     82 O14         0.7850    3.1950    0.0920 o         1 MOL     -0.731496
     83 C27         3.5450    4.2910    0.3470 c3        1 MOL      0.457448
     84 C28         4.6600    5.2950    0.6460 c3        1 MOL     -0.247314
     85 O15         4.1900    3.3170   -0.4850 oh        1 MOL     -0.737231
     86 H35         1.9160    5.8270    1.5240 hn        1 MOL      0.335055
     87 H36         2.5890    5.4560   -1.2080 h1        1 MOL      0.067962
     88 H37         3.3180    3.8200    1.3100 h1        1 MOL     -0.015523
     89 H38         4.8270    2.8030    0.0060 ho        1 MOL      0.426673
     90 H39         5.5370    4.7290    0.9650 hc        1 MOL      0.059829
     91 H40         4.9080    5.9050   -0.2320 hc        1 MOL      0.059829
     92 H41         4.4310    5.9330    1.4940 hc        1 MOL      0.059829
     93 N9          1.5090    3.5690   -2.0230 n         1 MOL     -0.649784
     94 C29         0.8520    2.4410   -2.7350 c3        1 MOL      0.309542
     95 C30         1.3630    1.0390   -2.1550 c         1 MOL      0.425708
     96 O16         0.7860    0.5420   -1.1870 o         1 MOL     -0.538970
     97 C31        -0.6950    2.5740   -2.6240 c3        1 MOL      0.087698
     98 C32        -1.1630    4.0250   -3.0840 c3        1 MOL      0.117138
     99 C33        -1.4000    1.5820   -3.4530 c3        1 MOL     -0.321940
    100 C34        -2.6680    4.2570   -2.8120 c3        1 MOL     -0.184704
    101 H42         2.1170    4.1580   -2.5700 hn        1 MOL      0.314322
    102 H43         1.1660    2.5450   -3.7690 h1        1 MOL     -0.001334
    103 H44        -1.0220    2.5120   -1.5850 hc        1 MOL      0.084621
    104 H45        -0.9270    4.1270   -4.1410 hc        1 MOL     -0.036194
    105 H46        -0.4720    4.7130   -2.5980 hc        1 MOL     -0.036194
    106 H47        -1.0070    1.5670   -4.4630 hc        1 MOL      0.067447
    107 H48        -1.2900    0.6030   -2.9760 hc        1 MOL      0.067447
    108 H49        -2.4790    1.7110   -3.3240 hc        1 MOL      0.067447
    109 H50        -2.8690    5.2690   -2.4590 hc        1 MOL      0.037705
    110 H51        -3.1420    4.0590   -3.7700 hc        1 MOL      0.037705
    111 H52        -3.1720    3.6230   -2.0910 hc        1 MOL      0.037705
    112 N10         2.3900    0.5010   -2.7830 n         1 MOL     -0.468865
    113 C35         2.6930   -0.9440   -2.6930 c3        1 MOL     -0.130404
    114 C36         4.1990   -1.2590   -2.7850 c         1 MOL      0.496141
    115 O17         4.6500   -2.4170   -2.6340 o         1 MOL     -0.541092
    116 C37         1.9010   -1.8200   -3.7490 c3        1 MOL      0.398772
    117 C38         2.1110   -1.3760   -5.1730 c3        1 MOL     -0.166844
    118 O18         0.4970   -1.7620   -3.5150 oh        1 MOL     -0.540445
    119 H53         2.9220    1.1460   -3.3600 hn        1 MOL      0.287816
    120 H54         2.3930   -1.3170   -1.7140 h1        1 MOL      0.181145
    121 H55         2.3410   -2.8080   -3.6050 h1        1 MOL     -0.004675
    122 H56         0.3600   -2.0110   -2.6010 ho        1 MOL      0.273871
    123 H57         1.7730   -0.3480   -5.2700 hc        1 MOL      0.035472
    124 H58         3.1740   -1.4000   -5.3780 hc        1 MOL      0.035472
    125 H59         1.5770   -1.9910   -5.8960 hc        1 MOL      0.035472
    126 N11         5.0980   -0.3360   -3.1680 n         1 MOL     -0.186499
    127 C39         6.5980   -0.4510   -3.1340 c3        1 MOL     -0.248493
    128 C40         7.0920   -0.8010   -1.7270 c         1 MOL      0.616341
    129 O19         7.5150    0.1430   -1.0420 o         1 MOL     -0.569859
    130 C41         7.2460    0.8700   -3.6020 c3        1 MOL      0.491179
    131 C42         7.1700    0.7960   -5.1080 c3        1 MOL     -0.309143
    132 O20         6.7260    2.0190   -3.0710 oh        1 MOL     -0.606660
    133 H60         4.7130    0.6020   -3.1890 hn        1 MOL      0.201086
    134 H61         6.9060   -1.2060   -3.8540 h1        1 MOL      0.111432
    135 H62         8.3000    0.8840   -3.3460 h1        1 MOL     -0.023556
    136 H63         7.2170    2.3240   -2.3000 ho        1 MOL      0.400150
    137 H64         7.5580   -0.1250   -5.5320 hc        1 MOL      0.067482
    138 H65         6.1500    0.8410   -5.4800 hc        1 MOL      0.067482
    139 H66         7.7180    1.6950   -5.3990 hc        1 MOL      0.067482
    140 N12         6.9710   -1.9920   -1.2770 n         1 MOL     -0.711092
    141 C43         6.8360   -2.4770    0.1590 c3        1 MOL      0.407380
    142 C44         5.4710   -1.9710    0.7230 c         1 MOL      0.449059
    143 O21         4.9200   -0.9410    0.3080 o         1 MOL     -0.515681
    144 C45         8.1410   -2.1800    0.9500 c3        1 MOL     -0.427313
    145 C46         9.4920   -2.6100    0.3280 c3        1 MOL      0.116807
    146 C47        10.5890   -2.4680    1.3910 c3        1 MOL      0.032068
    147 C48        11.8410   -2.4560    0.5390 c3        1 MOL     -0.008888
    148 N13        13.0070   -2.1250    1.3640 n4        1 MOL     -0.088452
    149 H67         6.4130   -2.5030   -1.9490 hn        1 MOL      0.342990
    150 H68         6.6980   -3.5530    0.1000 h1        1 MOL      0.029643
    151 H69         8.0010   -2.7700    1.8620 hc        1 MOL      0.128784
    152 H70         8.1190   -1.1120    1.1820 hc        1 MOL      0.128784
    153 H71         9.7260   -2.0160   -0.5550 hc        1 MOL      0.014604
    154 H72         9.4120   -3.6470   -0.0090 hc        1 MOL      0.014604
    155 H73        10.6170   -3.3480    2.0290 hc        1 MOL      0.019652
    156 H74        10.4400   -1.5960    2.0230 hc        1 MOL      0.019652
    157 H75        11.7260   -1.5790   -0.0990 hx        1 MOL      0.069527
    158 H76        12.0600   -3.3770   -0.0180 hx        1 MOL      0.069527
    159 H77        12.7990   -1.1980    1.7120 hn        1 MOL      0.194711
    160 H78        12.9810   -2.7390    2.1720 hn        1 MOL      0.194711
    161 H79        13.9000   -2.0290    0.8850 hn        1 MOL      0.194711
    162 N14         4.9130   -2.7430    1.6240 n         1 MOL     -0.561041
    163 C49         3.7340   -2.3920    2.4100 c3        1 MOL      0.186813
    164 C50         2.4340   -2.2900    1.6150 c         1 MOL      0.586320
    165 O22         1.7690   -1.3170    1.8120 o         1 MOL     -0.715822
    166 C51         3.5700   -3.4950    3.5230 c3        1 MOL      0.029320
    167 C52         4.5070   -3.3280    4.7120 c3        1 MOL     -0.244927
    168 C53         3.9500   -3.9330    6.0220 c         1 MOL      0.742251
    169 O23         3.7330   -5.1380    6.0740 o         1 MOL     -0.635599
    170 O24         3.7180   -3.1950    7.0190 o         1 MOL     -0.635599
    171 H80         5.5410   -3.4370    2.0080 hn        1 MOL      0.296534
    172 H81         3.9180   -1.4340    2.8800 h1        1 MOL      0.102888
    173 H82         3.7520   -4.4820    3.0940 hc        1 MOL      0.037312
    174 H83         2.5390   -3.5370    3.8850 hc        1 MOL      0.037312
    175 H84         4.5440   -2.2350    4.7540 hc        1 MOL     -0.005323
    176 H85         5.4920   -3.7100    4.4640 hc        1 MOL     -0.005323
    177 N15         2.0500   -3.1470    0.6700 n         1 MOL     -0.398532
    178 C54         2.5270   -4.5680    0.5060 c3        1 MOL     -0.075420
    179 H86         2.4860   -5.0780    1.4680 h1        1 MOL      0.055519
    180 H87         1.8870   -5.0860   -0.2070 h1        1 MOL      0.055519
    181 H88         3.5530   -4.5670    0.1390 h1        1 MOL      0.055519
    182 H89         1.2120   -2.8830    0.1690 hn        1 MOL      0.371912
    183 Ca1         0.2430    0.8370    1.3870 Ca        1 MOL      1.849332
    184 O25        -1.8780    0.1720    2.9310 oh        1 MOL     -0.887781
    185 H90        -2.6860    0.2750    2.4140 ho        1 MOL      0.428231
    186 H91        -1.9370    0.8410    3.6050 ho        1 MOL      0.428231
    187 O26         1.5720    1.0890    3.7490 oh        1 MOL     -0.887781
    188 H92         2.1560    0.5260    4.2630 ho        1 MOL      0.428231
    189 H93         1.0720    1.5800    4.4010 ho        1 MOL      0.428231
    190 O27         2.8850    1.0500    0.7030 oh        1 MOL     -0.887781
    191 H94         3.6250    0.5390    1.0100 ho        1 MOL      0.428231
    192 H95         3.2230    1.5650   -0.0290 ho        1 MOL      0.428231
@<TRIPOS>BOND
     1    1    2 1   
     2    1    4 1   
     3    1    5 1   
     4    1    6 1   
     5    2    3 2   
     6    2    7 1   
     7    7    8 1   
     8    7   15 1   
     9    8    9 1   
    10    8   11 1   
    11    8   16 1   
    12    9   10 2   
    13    9   19 1   
    14   11   12 1   
    15   11   17 1   
    16   11   18 1   
    17   12   13 1   
    18   12   14 1   
    19   19   20 1   
    20   19   28 1   
    21   20   21 1   
    22   20   23 1   
    23   20   29 1   
    24   21   22 2   
    25   21   41 1   
    26   23   24 1   
    27   23   30 1   
    28   23   31 1   
    29   24   25 1   
    30   24   32 1   
    31   24   33 1   
    32   25   26 1   
    33   25   34 1   
    34   25   35 1   
    35   26   27 1   
    36   26   36 1   
    37   26   37 1   
    38   27   38 1   
    39   27   39 1   
    40   27   40 1   
    41   41   42 1   
    42   41   49 1   
    43   42   43 1   
    44   42   45 1   
    45   42   50 1   
    46   43   44 2   
    47   43   53 1   
    48   45   46 1   
    49   45   51 1   
    50   45   52 1   
    51   46   47 1   
    52   46   48 1   
    53   53   54 1   
    54   53   57 1   
    55   54   55 1   
    56   54   58 1   
    57   54   59 1   
    58   55   56 2   
    59   55   60 1   
    60   60   61 1   
    61   60   68 1   
    62   61   62 1   
    63   61   64 1   
    64   61   69 1   
    65   62   63 2   
    66   62   72 1   
    67   64   65 1   
    68   64   70 1   
    69   64   71 1   
    70   65   66 1   
    71   65   67 1   
    72   72   73 1   
    73   72   76 1   
    74   73   74 1   
    75   73   77 1   
    76   73   78 1   
    77   74   75 2   
    78   74   79 1   
    79   79   80 1   
    80   79   86 1   
    81   80   81 1   
    82   80   83 1   
    83   80   87 1   
    84   81   82 2   
    85   81   93 1   
    86   83   84 1   
    87   83   85 1   
    88   83   88 1   
    89   84   90 1   
    90   84   91 1   
    91   84   92 1   
    92   85   89 1   
    93   93   94 1   
    94   93  101 1   
    95   94   95 1   
    96   94   97 1   
    97   94  102 1   
    98   95   96 2   
    99   95  112 1   
   100   97   98 1   
   101   97   99 1   
   102   97  103 1   
   103   98  100 1   
   104   98  104 1   
   105   98  105 1   
   106   99  106 1   
   107   99  107 1   
   108   99  108 1   
   109  100  109 1   
   110  100  110 1   
   111  100  111 1   
   112  112  113 1   
   113  112  119 1   
   114  113  114 1   
   115  113  116 1   
   116  113  120 1   
   117  114  115 2   
   118  114  126 1   
   119  116  117 1   
   120  116  118 1   
   121  116  121 1   
   122  117  123 1   
   123  117  124 1   
   124  117  125 1   
   125  118  122 1   
   126  126  127 1   
   127  126  133 1   
   128  127  128 1   
   129  127  130 1   
   130  127  134 1   
   131  128  129 2   
   132  128  140 1   
   133  130  131 1   
   134  130  132 1   
   135  130  135 1   
   136  131  137 1   
   137  131  138 1   
   138  131  139 1   
   139  132  136 1   
   140  140  141 1   
   141  140  149 1   
   142  141  142 1   
   143  141  144 1   
   144  141  150 1   
   145  142  143 2   
   146  142  162 1   
   147  144  145 1   
   148  144  151 1   
   149  144  152 1   
   150  145  146 1   
   151  145  153 1   
   152  145  154 1   
   153  146  147 1   
   154  146  155 1   
   155  146  156 1   
   156  147  148 1   
   157  147  157 1   
   158  147  158 1   
   159  148  159 1   
   160  148  160 1   
   161  148  161 1   
   162  162  163 1   
   163  162  171 1   
   164  163  164 1   
   165  163  166 1   
   166  163  172 1   
   167  164  165 2   
   168  164  177 1   
   169  166  167 1   
   170  166  173 1   
   171  166  174 1   
   172  167  168 1   
   173  167  175 1   
   174  167  176 1   
   175  168  169 1   
   176  168  170 1   
   177  177  178 1   
   178  177  182 1   
   179  178  179 1   
   180  178  180 1   
   181  178  181 1   
   182  184  185 1   
   183  184  186 1   
   184  187  188 1   
   185  187  189 1   
   186  190  191 1   
   187  190  192 1   
@<TRIPOS>SUBSTRUCTURE
     1 MOL         1 TEMP              0 ****  ****    0 ROOT
