@<TRIPOS>MOLECULE
MOL
  181   177     1     0     0
SMALL
resp


@<TRIPOS>ATOM
      1 C1          6.6370    3.3860    4.7680 c3        1 MOL     -0.380097
      2 C2          5.9200    2.1230    4.1780 c         1 MOL      0.690478
      3 O1          4.7340    1.8870    4.4370 o         1 MOL     -0.582503
      4 H1          7.3900    3.0710    5.4910 hc        1 MOL      0.093584
      5 H2          7.1180    3.9420    3.9630 hc        1 MOL      0.093584
      6 H3          5.9030    4.0240    5.2620 hc        1 MOL      0.093584
      7 N1          6.6010    1.2690    3.3800 n         1 MOL     -0.394737
      8 C3          8.0320    1.3040    2.9830 c3        1 MOL     -0.117760
      9 C4          8.5640   -0.0430    2.6250 c         1 MOL      0.539676
     10 O2          8.1260   -1.0470    3.0410 o         1 MOL     -0.463197
     11 C5          8.2850    2.3590    1.8370 c3        1 MOL     -0.257442
     12 C6          7.3270    2.2560    0.6860 c         1 MOL      0.693308
     13 O3          6.2720    2.9620    0.6080 o         1 MOL     -0.711194
     14 O4          7.5900    1.3550   -0.1630 o         1 MOL     -0.711194
     15 H4          6.0880    0.5980    2.8150 hn        1 MOL      0.257793
     16 H5          8.6500    1.6220    3.8230 h1        1 MOL      0.113974
     17 H6          9.3200    2.3230    1.5110 hc        1 MOL      0.054841
     18 H7          8.0730    3.3610    2.2160 hc        1 MOL      0.054841
     19 N2          9.6040   -0.1350    1.7870 n         1 MOL     -0.410716
     20 C7         10.2480   -1.3850    1.3540 c3        1 MOL      0.151240
     21 C8          9.2880   -2.3580    0.6560 c         1 MOL      0.482636
     22 O5          9.5950   -3.5600    0.5620 o         1 MOL     -0.547302
     23 C9         11.1070   -1.9830    2.4840 c3        1 MOL     -0.383362
     24 H8         10.0000    0.7360    1.4640 hn        1 MOL      0.263696
     25 H9         10.8950   -1.0860    0.5310 h1        1 MOL      0.045408
     26 H10        10.5740   -2.3370    3.3660 hc        1 MOL      0.107591
     27 H11        11.6420   -2.8570    2.1310 hc        1 MOL      0.107591
     28 H12        11.7320   -1.2250    2.9660 hc        1 MOL      0.107591
     29 N3          8.1480   -1.8400    0.1780 n         1 MOL     -0.410206
     30 C10         6.9790   -2.6420   -0.1470 c3        1 MOL      0.369455
     31 C11         6.4230   -2.3440   -1.4910 c         1 MOL      0.471515
     32 O6          6.3680   -1.2000   -1.9270 o         1 MOL     -0.556918
     33 C12         5.9090   -2.6890    0.9200 c3        1 MOL     -0.209099
     34 C13         5.4760   -1.3360    1.4980 c         1 MOL      0.601960
     35 O7          4.9430   -1.3590    2.6270 o         1 MOL     -0.614310
     36 O8          5.6200   -0.2300    0.9040 o         1 MOL     -0.614310
     37 H13         8.0700   -0.8400    0.2590 hn        1 MOL      0.179924
     38 H14         7.3240   -3.6520   -0.3920 h1        1 MOL     -0.063089
     39 H15         6.2260   -3.4080    1.6760 hc        1 MOL      0.055642
     40 H16         5.0650   -3.1590    0.4170 hc        1 MOL      0.055642
     41 N4          5.9780   -3.4120   -2.2250 n         1 MOL     -0.422163
     42 C14         5.3220   -3.2300   -3.5840 c3        1 MOL     -0.288848
     43 C15         3.9510   -2.5340   -3.4650 c         1 MOL      0.610437
     44 O9          3.5510   -1.7430   -4.3590 o         1 MOL     -0.582426
     45 H17         5.7250   -4.2160   -1.6730 hn        1 MOL      0.279064
     46 H18         5.2100   -4.1760   -4.1030 h1        1 MOL      0.164679
     47 H19         5.9910   -2.5430   -4.1000 h1        1 MOL      0.164679
     48 N5          3.2950   -2.7910   -2.3420 n         1 MOL     -0.497291
     49 C16         1.9420   -2.2960   -2.0480 c3        1 MOL      0.007500
     50 C17         2.1250   -0.7690   -1.6460 c         1 MOL      0.434241
     51 O10         3.2200   -0.2510   -1.3400 o         1 MOL     -0.490198
     52 C18         1.2640   -3.1640   -0.9740 c3        1 MOL      0.015275
     53 C19         1.1050   -4.5930   -1.3950 c         1 MOL      0.519638
     54 N6          0.8830   -5.4890   -0.4370 n         1 MOL     -0.811804
     55 O11         0.9400   -5.0020   -2.5600 o         1 MOL     -0.511502
     56 H20         3.7420   -3.4610   -1.7250 hn        1 MOL      0.326505
     57 H21         1.3610   -2.4720   -2.9600 h1        1 MOL      0.120132
     58 H22         0.2920   -2.7030   -0.8220 hc        1 MOL      0.003825
     59 H23         1.8300   -3.0530   -0.0510 hc        1 MOL      0.003825
     60 H24         0.7370   -5.1640    0.5100 hn        1 MOL      0.397650
     61 H25         0.7010   -6.4180   -0.7920 hn        1 MOL      0.397650
     62 N7          1.0470   -0.0380   -1.7390 n         1 MOL     -0.343211
     63 C20         0.8930    1.3660   -1.6150 c3        1 MOL      0.085554
     64 C21         0.5510    1.8780   -3.0180 c         1 MOL      0.611272
     65 O12         0.6890    1.3350   -4.0810 o         1 MOL     -0.542553
     66 H26         0.2740   -0.6030   -2.0660 hn        1 MOL      0.279142
     67 H27         1.8580    1.7910   -1.3580 h1        1 MOL      0.028813
     68 H28         0.0350    1.5810   -0.9670 h1        1 MOL      0.028813
     69 N8         -0.1260    3.0740   -3.1060 n         1 MOL     -0.532771
     70 C22        -0.3110    4.0980   -2.0730 c3        1 MOL     -0.076113
     71 C23        -1.5420    3.8060   -1.2750 c         1 MOL      0.603054
     72 O13        -2.5820    3.4830   -1.8790 o         1 MOL     -0.552135
     73 C24        -0.4090    5.4870   -2.6680 c3        1 MOL      0.373420
     74 C25        -0.6170    6.6090   -1.6900 c3        1 MOL     -0.321641
     75 O14         0.7420    5.6780   -3.5330 oh        1 MOL     -0.644656
     76 H29        -0.3720    3.2940   -4.0550 hn        1 MOL      0.318481
     77 H30         0.5540    4.1440   -1.4070 h1        1 MOL      0.098026
     78 H31        -1.2560    5.5280   -3.3490 h1        1 MOL      0.014787
     79 H32         0.4590    6.2830   -4.2160 ho        1 MOL      0.389207
     80 H33        -1.5650    6.5450   -1.1520 hc        1 MOL      0.085890
     81 H34         0.1680    6.6260   -0.9370 hc        1 MOL      0.085890
     82 H35        -0.5540    7.5640   -2.2170 hc        1 MOL      0.085890
     83 N9         -1.4830    3.8730    0.0060 n         1 MOL     -0.514391
     84 C26        -2.5840    3.6540    0.9510 c3        1 MOL      0.029054
     85 C27        -3.5070    4.9580    1.1080 c         1 MOL      0.600050
     86 O15        -3.0870    5.9470    1.7320 o         1 MOL     -0.609630
     87 C28        -2.1130    3.1400    2.2630 c3        1 MOL      0.203130
     88 C29        -1.0010    2.0040    2.1250 c3        1 MOL     -0.002090
     89 C30        -3.2770    2.6070    3.1450 c3        1 MOL     -0.208626
     90 C31        -1.5210    0.6930    1.4750 c3        1 MOL     -0.234488
     91 H36        -0.5770    4.0590    0.4170 hn        1 MOL      0.242697
     92 H37        -3.2570    2.8850    0.5640 h1        1 MOL      0.078759
     93 H38        -1.6550    3.9520    2.8250 hc        1 MOL     -0.033686
     94 H39        -0.7490    1.8370    3.1740 hc        1 MOL     -0.010556
     95 H40        -0.0920    2.2840    1.6120 hc        1 MOL     -0.010556
     96 H41        -2.9030    2.2320    4.1040 hc        1 MOL      0.058000
     97 H42        -3.9870    3.3980    3.3690 hc        1 MOL      0.058000
     98 H43        -3.7530    1.9030    2.4610 hc        1 MOL      0.058000
     99 H44        -2.1450    0.1320    2.1760 hc        1 MOL      0.081244
    100 H45        -2.1090    0.9260    0.5900 hc        1 MOL      0.081244
    101 H46        -0.6920    0.0330    1.1820 hc        1 MOL      0.081244
    102 N10        -4.7530    4.9390    0.7670 n         1 MOL     -0.492547
    103 C32        -5.4530    3.9740   -0.1280 c3        1 MOL      0.206290
    104 C33        -6.0670    2.7780    0.5890 c         1 MOL      0.612938
    105 O16        -6.1420    2.6490    1.8340 o         1 MOL     -0.543924
    106 C34        -6.4230    4.7130   -1.0140 c3        1 MOL     -0.278477
    107 C35        -7.3820    5.6650   -0.3040 c         1 MOL      0.746477
    108 O17        -7.2580    6.8840   -0.5790 o         1 MOL     -0.728541
    109 O18        -8.2300    5.2160    0.4820 o         1 MOL     -0.728541
    110 H47        -5.2560    5.7680    1.0370 hn        1 MOL      0.323110
    111 H48        -4.7620    3.4220   -0.7550 h1        1 MOL      0.032374
    112 H49        -7.0040    4.0060   -1.6040 hc        1 MOL      0.043321
    113 H50        -5.7830    5.2170   -1.7370 hc        1 MOL      0.043321
    114 N11        -6.5210    1.7490   -0.2530 n         1 MOL     -0.645311
    115 C36        -7.1160    0.4100    0.1270 c3        1 MOL      0.100284
    116 C37        -7.5740   -0.3880   -1.1130 c         1 MOL      0.410481
    117 O19        -8.2150    0.2020   -2.0350 o         1 MOL     -0.531600
    118 C38        -8.2900    0.5740    1.0840 c3        1 MOL     -0.168151
    119 C39        -8.9570   -0.6360    1.6070 ca        1 MOL      0.040261
    120 C40        -9.9900   -1.2860    0.9690 ca        1 MOL     -0.148547
    121 C41        -8.6390   -1.0730    2.8840 ca        1 MOL     -0.148547
    122 C42       -10.7660   -2.2750    1.5120 ca        1 MOL     -0.061634
    123 C43        -9.3220   -2.1320    3.5060 ca        1 MOL     -0.061634
    124 C44       -10.3860   -2.7080    2.8070 ca        1 MOL     -0.189498
    125 H51        -6.4520    1.9200   -1.2420 hn        1 MOL      0.327267
    126 H52        -6.4450   -0.2170    0.7190 h1        1 MOL      0.098504
    127 H53        -9.0370    1.2890    0.7380 hc        1 MOL      0.121514
    128 H54        -7.8550    1.1160    1.9280 hc        1 MOL      0.121514
    129 H55       -10.2830   -0.9130   -0.0100 ha        1 MOL      0.105529
    130 H56        -7.8580   -0.5960    3.4530 ha        1 MOL      0.105529
    131 H57       -11.6460   -2.6720    1.0160 ha        1 MOL      0.091744
    132 H58        -9.1660   -2.3630    4.5550 ha        1 MOL      0.091744
    133 H59       -10.9380   -3.5740    3.1570 ha        1 MOL      0.100734
    134 N12        -7.4450   -1.7450   -1.1890 n         1 MOL     -0.189338
    135 C45        -6.9150   -2.6690   -0.1600 c3        1 MOL      0.463146
    136 C46        -5.4350   -2.4940   -0.0520 c         1 MOL      0.232024
    137 O20        -4.8110   -1.4870   -0.4430 o         1 MOL     -0.535030
    138 C47        -7.2870   -4.1070   -0.6490 c3        1 MOL     -0.078593
    139 C48        -8.5880   -3.8560   -1.4900 c3        1 MOL     -0.151273
    140 C49        -8.1100   -2.5790   -2.1960 c3        1 MOL      0.134071
    141 H60        -7.4200   -2.4400    0.7720 h1        1 MOL     -0.115290
    142 H61        -6.5250   -4.4890   -1.3310 hc        1 MOL      0.053370
    143 H62        -7.3910   -4.7190    0.2460 hc        1 MOL      0.053370
    144 H63        -8.8110   -4.7160   -2.1260 hc        1 MOL      0.038952
    145 H64        -9.4040   -3.6820   -0.7890 hc        1 MOL      0.038952
    146 H65        -7.4020   -2.7180   -3.0100 h1        1 MOL      0.013239
    147 H66        -8.9670   -2.0460   -2.6220 h1        1 MOL      0.013239
    148 N13        -4.7110   -3.3740    0.6630 n         1 MOL     -0.191651
    149 C50        -3.2680   -3.3920    0.8680 c3        1 MOL      0.109164
    150 C51        -2.6800   -4.0530    2.1930 c         1 MOL      0.386441
    151 O21        -1.6060   -4.6420    2.2190 o         1 MOL     -0.542397
    152 C52        -2.5680   -3.9790   -0.4140 c3        1 MOL     -0.207685
    153 C53        -2.8530   -5.4880   -0.7040 c3        1 MOL      0.032161
    154 C54        -4.3660   -5.8880   -0.9920 c         1 MOL      0.626436
    155 O22        -5.0480   -6.1930    0.0390 o         1 MOL     -0.690601
    156 O23        -4.7470   -5.8970   -2.1890 o         1 MOL     -0.690601
    157 H67        -5.1940   -4.2360    0.8560 hn        1 MOL      0.137151
    158 H68        -3.0280   -2.3280    0.8970 h1        1 MOL      0.029065
    159 H69        -1.4950   -3.9300   -0.2150 hc        1 MOL      0.092596
    160 H70        -2.8270   -3.3810   -1.2880 hc        1 MOL      0.092596
    161 H71        -2.5160   -6.0780    0.1500 hc        1 MOL     -0.021493
    162 H72        -2.2240   -5.8610   -1.5190 hc        1 MOL     -0.021493
    163 N14        -3.3950   -3.9640    3.3150 n         1 MOL     -0.279994
    164 C55        -4.3620   -2.9550    3.7120 c3        1 MOL     -0.078777
    165 H73        -4.0590   -2.5160    4.6620 h1        1 MOL      0.053250
    166 H74        -4.4080   -2.1760    2.9500 h1        1 MOL      0.053250
    167 H75        -5.3440   -3.4150    3.8210 h1        1 MOL      0.053250
    168 H76        -2.9760   -4.4430    4.1060 hn        1 MOL      0.261102
    169 Ca1         5.2550    1.3600   -1.1670 Ca        1 MOL      1.755363
    170 O24         6.9550    2.7740   -2.6190 oh        1 MOL     -0.846321
    171 H77         7.0930    3.7090   -2.8070 ho        1 MOL      0.417473
    172 H78         7.5430    2.3210   -3.2280 ho        1 MOL      0.417473
    173 O25         4.7860    0.7220   -3.7080 oh        1 MOL     -0.846321
    174 H79         4.2620   -0.0610   -3.8720 ho        1 MOL      0.417473
    175 H80         5.1480    0.9530   -4.5670 ho        1 MOL      0.417473
    176 O26         3.4100    1.8480    0.8290 oh        1 MOL     -0.846321
    177 H81         3.1570    1.1160    1.3950 ho        1 MOL      0.417473
    178 H82         3.3740    2.6160    1.4010 ho        1 MOL      0.417473
    179 O27         3.7550    3.2050   -2.2410 oh        1 MOL     -0.846321
    180 H83         3.8460    3.5880   -3.1080 ho        1 MOL      0.417473
    181 H84         3.2000    3.8190   -1.7580 ho        1 MOL      0.417473
@<TRIPOS>BOND
     1    1    2 1   
     2    1    4 1   
     3    1    5 1   
     4    1    6 1   
     5    2    3 2   
     6    2    7 1   
     7    7    8 1   
     8    7   15 1   
     9    8    9 1   
    10    8   11 1   
    11    8   16 1   
    12    9   10 2   
    13    9   19 1   
    14   11   12 1   
    15   11   17 1   
    16   11   18 1   
    17   12   13 1   
    18   12   14 1   
    19   19   20 1   
    20   19   24 1   
    21   20   21 1   
    22   20   23 1   
    23   20   25 1   
    24   21   22 2   
    25   21   29 1   
    26   23   26 1   
    27   23   27 1   
    28   23   28 1   
    29   29   30 1   
    30   29   37 1   
    31   30   31 1   
    32   30   33 1   
    33   30   38 1   
    34   31   32 2   
    35   31   41 1   
    36   33   34 1   
    37   33   39 1   
    38   33   40 1   
    39   34   35 1   
    40   34   36 1   
    41   41   42 1   
    42   41   45 1   
    43   42   43 1   
    44   42   46 1   
    45   42   47 1   
    46   43   44 2   
    47   43   48 1   
    48   48   49 1   
    49   48   56 1   
    50   49   50 1   
    51   49   52 1   
    52   49   57 1   
    53   50   51 2   
    54   50   62 1   
    55   52   53 1   
    56   52   58 1   
    57   52   59 1   
    58   53   54 1   
    59   53   55 2   
    60   54   60 1   
    61   54   61 1   
    62   62   63 1   
    63   62   66 1   
    64   63   64 1   
    65   63   67 1   
    66   63   68 1   
    67   64   65 2   
    68   64   69 1   
    69   69   70 1   
    70   69   76 1   
    71   70   71 1   
    72   70   73 1   
    73   70   77 1   
    74   71   72 2   
    75   71   83 1   
    76   73   74 1   
    77   73   75 1   
    78   73   78 1   
    79   74   80 1   
    80   74   81 1   
    81   74   82 1   
    82   75   79 1   
    83   83   84 1   
    84   83   91 1   
    85   84   85 1   
    86   84   87 1   
    87   84   92 1   
    88   85   86 2   
    89   85  102 1   
    90   87   88 1   
    91   87   89 1   
    92   87   93 1   
    93   88   90 1   
    94   88   94 1   
    95   88   95 1   
    96   89   96 1   
    97   89   97 1   
    98   89   98 1   
    99   90   99 1   
   100   90  100 1   
   101   90  101 1   
   102  102  103 1   
   103  102  110 1   
   104  103  104 1   
   105  103  106 1   
   106  103  111 1   
   107  104  105 2   
   108  104  114 1   
   109  106  107 1   
   110  106  112 1   
   111  106  113 1   
   112  107  108 1   
   113  107  109 1   
   114  114  115 1   
   115  114  125 1   
   116  115  116 1   
   117  115  118 1   
   118  115  126 1   
   119  116  117 2   
   120  116  134 1   
   121  118  119 1   
   122  118  127 1   
   123  118  128 1   
   124  119  120 ar  
   125  119  121 ar  
   126  120  122 ar  
   127  120  129 1   
   128  121  123 ar  
   129  121  130 1   
   130  122  124 ar  
   131  122  131 1   
   132  123  124 ar  
   133  123  132 1   
   134  124  133 1   
   135  134  135 1   
   136  134  140 1   
   137  135  136 1   
   138  135  138 1   
   139  135  141 1   
   140  136  137 2   
   141  136  148 1   
   142  138  139 1   
   143  138  142 1   
   144  138  143 1   
   145  139  140 1   
   146  139  144 1   
   147  139  145 1   
   148  140  146 1   
   149  140  147 1   
   150  148  149 1   
   151  148  157 1   
   152  149  150 1   
   153  149  152 1   
   154  149  158 1   
   155  150  151 2   
   156  150  163 1   
   157  152  153 1   
   158  152  159 1   
   159  152  160 1   
   160  153  154 1   
   161  153  161 1   
   162  153  162 1   
   163  154  155 1   
   164  154  156 1   
   165  163  164 1   
   166  163  168 1   
   167  164  165 1   
   168  164  166 1   
   169  164  167 1   
   170  170  171 1   
   171  170  172 1   
   172  173  174 1   
   173  173  175 1   
   174  176  177 1   
   175  176  178 1   
   176  179  180 1   
   177  179  181 1   
@<TRIPOS>SUBSTRUCTURE
     1 MOL         1 TEMP              0 ****  ****    0 ROOT
