@<TRIPOS>MOLECULE
MOL
  182   178     1     0     0
SMALL
resp


@<TRIPOS>ATOM
      1 C1          0.8380   -4.9250    5.7910 c3        1 MOL     -0.379385
      2 C2          0.9990   -4.5500    4.3100 c         1 MOL      0.790754
      3 O1          0.1060   -4.9490    3.5860 o         1 MOL     -0.586996
      4 H1          1.7430   -5.4240    6.1390 hc        1 MOL      0.098437
      5 H2          0.6720   -4.0230    6.3790 hc        1 MOL      0.098437
      6 H3         -0.0130   -5.5960    5.9060 hc        1 MOL      0.098437
      7 N1          2.0460   -3.8410    3.9500 n         1 MOL     -0.625752
      8 C3          2.2610   -3.4340    2.5330 c3        1 MOL     -0.077016
      9 C4          2.6610   -4.6310    1.5250 c         1 MOL      0.594634
     10 O2          3.2520   -5.6590    1.9490 o         1 MOL     -0.528993
     11 C5          3.3390   -2.3880    2.6820 c3        1 MOL      0.006025
     12 C6          3.5250   -1.4500    1.4650 c         1 MOL      0.643990
     13 O3          3.8670   -0.2370    1.5670 o         1 MOL     -0.752008
     14 O4          3.2520   -1.8840    0.3420 o         1 MOL     -0.752008
     15 H4          2.7310   -3.6620    4.6660 hn        1 MOL      0.339304
     16 H5          1.3800   -2.9120    2.1620 h1        1 MOL      0.045306
     17 H6          4.2940   -2.9060    2.7990 hc        1 MOL      0.038447
     18 H7          3.2560   -1.7540    3.5680 hc        1 MOL      0.038447
     19 N2          2.4150   -4.4740    0.2170 n         1 MOL     -0.447998
     20 C7          2.8620   -5.3720   -0.8790 c3        1 MOL      0.014850
     21 C8          4.1080   -4.9480   -1.6870 c         1 MOL      0.660173
     22 O5          4.5680   -5.7470   -2.5040 o         1 MOL     -0.579215
     23 C9          1.6170   -5.7800   -1.7070 c3        1 MOL     -0.056454
     24 C10         0.8670   -4.6180   -2.3210 c3        1 MOL      0.085496
     25 C11        -0.4690   -5.1320   -2.9740 c3        1 MOL     -0.391406
     26 C12        -1.3860   -5.6690   -1.8740 c3        1 MOL      0.175825
     27 N3         -2.6350   -6.2010   -2.4670 n4        1 MOL     -0.262650
     28 H8          1.9090   -3.6310   -0.0050 hn        1 MOL      0.266365
     29 H9          3.3070   -6.2470   -0.3940 h1        1 MOL      0.086316
     30 H10         0.9040   -6.3220   -1.0740 hc        1 MOL      0.032950
     31 H11         2.0030   -6.4620   -2.4630 hc        1 MOL      0.032950
     32 H12         1.4880   -4.1290   -3.0740 hc        1 MOL      0.035523
     33 H13         0.7360   -3.8390   -1.5720 hc        1 MOL      0.035523
     34 H14        -0.1490   -5.8970   -3.6820 hc        1 MOL      0.118133
     35 H15        -0.9560   -4.3070   -3.4920 hc        1 MOL      0.118133
     36 H16        -1.6530   -4.8030   -1.2680 hx        1 MOL      0.068981
     37 H17        -1.0030   -6.5070   -1.2920 hx        1 MOL      0.068981
     38 H18        -2.4120   -6.9120   -3.1450 hn        1 MOL      0.253208
     39 H19        -3.2990   -6.5240   -1.7720 hn        1 MOL      0.253208
     40 H20        -3.0630   -5.5000   -3.0620 hn        1 MOL      0.253208
     41 N4          4.6340   -3.7920   -1.4230 n         1 MOL     -0.629313
     42 C13         5.7270   -3.2050   -2.2330 c3        1 MOL      0.126168
     43 C14         6.6520   -2.3390   -1.3610 c         1 MOL      0.284313
     44 O6          7.6840   -1.8350   -1.8570 o         1 MOL     -0.506129
     45 C15         5.2250   -2.3380   -3.4010 c3        1 MOL     -0.423763
     46 C16         4.3130   -1.1870   -2.8210 c         1 MOL      0.886544
     47 O7          3.0830   -1.4000   -2.7540 o         1 MOL     -0.812078
     48 O8          4.7490   -0.2570   -2.1670 o         1 MOL     -0.812078
     49 H21         4.1080   -3.2190   -0.7710 hn        1 MOL      0.433973
     50 H22         6.2530   -4.0410   -2.6920 h1        1 MOL      0.152798
     51 H23         4.6600   -3.0310   -4.0130 hc        1 MOL      0.128147
     52 H24         6.0670   -1.9990   -4.0050 hc        1 MOL      0.128147
     53 N5          6.4090   -2.1360   -0.0230 n         1 MOL     -0.027339
     54 C17         7.3010   -1.5030    0.9560 c3        1 MOL     -0.348083
     55 C18         7.3550    0.0200    0.7280 c         1 MOL      0.656393
     56 O9          8.0720    0.6800    1.5730 o         1 MOL     -0.572307
     57 H25         5.5120   -2.5260    0.2380 hn        1 MOL      0.081179
     58 H26         8.3120   -1.8840    0.8120 h1        1 MOL      0.157526
     59 H27         6.9420   -1.8330    1.9300 h1        1 MOL      0.157526
     60 N6          6.6880    0.6250   -0.2680 n         1 MOL     -0.470526
     61 C19         6.8940    2.0000   -0.7660 c3        1 MOL      0.013932
     62 C20         5.5360    2.7010   -0.9440 c         1 MOL      0.740757
     63 O10         4.4770    2.1730   -0.7470 o         1 MOL     -0.560641
     64 C21         7.6870    1.9910   -2.0970 c3        1 MOL     -0.201756
     65 C22         9.1590    1.6070   -1.9540 c         1 MOL      0.708361
     66 N7          9.4350    0.2990   -1.8880 n         1 MOL     -0.879906
     67 O11        10.0680    2.4190   -1.9450 o         1 MOL     -0.577960
     68 H28         6.0860    0.1380   -0.9270 hn        1 MOL      0.445256
     69 H29         7.5310    2.5950   -0.1150 h1        1 MOL      0.077603
     70 H30         7.7390    3.0070   -2.4850 hc        1 MOL      0.032503
     71 H31         7.1990    1.2680   -2.7600 hc        1 MOL      0.032503
     72 H32         8.6500   -0.3190   -1.9780 hn        1 MOL      0.396987
     73 H33        10.3880    0.0140   -1.6960 hn        1 MOL      0.396987
     74 N8          5.5830    4.0500   -1.1610 n         1 MOL     -0.660823
     75 C23         4.3450    4.8820   -1.2260 c3        1 MOL      0.147832
     76 C24         3.5700    4.7500    0.0670 c         1 MOL      0.502490
     77 O12         4.2120    4.6380    1.1600 o         1 MOL     -0.514538
     78 H34         6.4800    4.5160   -1.1080 hn        1 MOL      0.374387
     79 H35         3.6890    4.7070   -2.0810 h1        1 MOL      0.031202
     80 H36         4.6030    5.9330   -1.3410 h1        1 MOL      0.031202
     81 N9          2.2430    4.8110    0.0990 n         1 MOL     -0.556200
     82 C25         1.3380    4.5090    1.2030 c3        1 MOL      0.406362
     83 C26         1.3080    3.0050    1.5900 c         1 MOL      0.341857
     84 O13         2.1150    2.2720    1.0790 o         1 MOL     -0.367375
     85 C27        -0.1170    5.0650    0.9660 c3        1 MOL     -0.100615
     86 C28        -0.1460    6.5550    0.5930 ca        1 MOL     -0.083388
     87 C29        -0.4410    6.9310   -0.7200 ca        1 MOL     -0.038813
     88 C30         0.1500    7.5150    1.5780 ca        1 MOL     -0.038813
     89 C31        -0.4350    8.2750   -1.0750 ca        1 MOL     -0.327521
     90 C32         0.1630    8.9130    1.1830 ca        1 MOL     -0.327521
     91 C33        -0.1730    9.2630   -0.1140 ca        1 MOL      0.397604
     92 O14        -0.3300   10.5570   -0.4490 oh        1 MOL     -0.463763
     93 H37         1.7750    5.0240   -0.7770 hn        1 MOL      0.211587
     94 H38         1.6350    5.0830    2.0780 h1        1 MOL      0.035534
     95 H39        -0.6300    4.9350    1.9150 hc        1 MOL      0.023605
     96 H40        -0.6090    4.4410    0.2190 hc        1 MOL      0.023605
     97 H41        -0.6790    6.2610   -1.5280 ha        1 MOL      0.108287
     98 H42         0.3020    7.1830    2.5880 ha        1 MOL      0.108287
     99 H43        -0.5650    8.5280   -2.1090 ha        1 MOL      0.170468
    100 H44         0.4940    9.7010    1.8520 ha        1 MOL      0.170468
    101 H45        -0.7560   10.6650   -1.2960 ho        1 MOL      0.352965
    102 N10         0.4350    2.6400    2.4970 n         1 MOL     -0.656385
    103 C34         0.1240    1.2350    2.9290 c3        1 MOL      0.168678
    104 C35        -0.1600    0.1960    1.7920 c         1 MOL      0.570377
    105 O15         0.7340   -0.1770    1.0270 o         1 MOL     -0.486255
    106 C36         1.2200    0.6290    3.8560 c3        1 MOL      0.206644
    107 C37         0.7990   -0.7610    4.4430 c3        1 MOL     -0.273744
    108 C38         1.6270    1.5850    4.9430 c3        1 MOL     -0.211328
    109 C39        -0.4370   -0.8150    5.3920 c3        1 MOL     -0.101124
    110 H46        -0.1710    3.3570    2.8760 hn        1 MOL      0.316468
    111 H47        -0.7720    1.2440    3.5570 h1        1 MOL      0.045677
    112 H48         2.0880    0.5200    3.2080 hc        1 MOL      0.061885
    113 H49         1.6680   -1.2030    4.9360 hc        1 MOL      0.093061
    114 H50         0.5210   -1.4960    3.6840 hc        1 MOL      0.093061
    115 H51         1.9510    2.5840    4.6210 hc        1 MOL      0.063474
    116 H52         0.8050    1.8560    5.5970 hc        1 MOL      0.063474
    117 H53         2.5260    1.2690    5.4720 hc        1 MOL      0.063474
    118 H54        -1.3200   -0.7340    4.7590 hc        1 MOL      0.023044
    119 H55        -0.3800   -1.7790    5.8940 hc        1 MOL      0.023044
    120 H56        -0.4040   -0.0500    6.1580 hc        1 MOL      0.023044
    121 N11        -1.4070   -0.2720    1.7430 n         1 MOL     -0.552098
    122 C40        -1.8390   -1.4300    0.9420 c3        1 MOL      0.262361
    123 C41        -3.2410   -1.2560    0.2710 c         1 MOL      0.503173
    124 O16        -3.4840   -1.9450   -0.6810 o         1 MOL     -0.537160
    125 C42        -1.9730   -2.6380    1.8350 c3        1 MOL      0.500582
    126 O17        -2.1370   -3.8030    1.0910 oh        1 MOL     -0.722744
    127 H57        -2.1050    0.3080    2.1940 hn        1 MOL      0.215931
    128 H58        -1.0580   -1.5790    0.1990 h1        1 MOL     -0.006593
    129 H59        -2.8380   -2.4420    2.4610 h1        1 MOL     -0.064840
    130 H60        -1.1700   -2.7540    2.5660 h1        1 MOL     -0.064840
    131 H61        -3.0270   -4.1310    1.2090 ho        1 MOL      0.422272
    132 N12        -4.0970   -0.3390    0.7690 n         1 MOL     -0.623238
    133 C43        -5.3900   -0.0250    0.1690 c3        1 MOL      0.068067
    134 C44        -5.2650    0.6570   -1.2400 c         1 MOL      0.704080
    135 O18        -4.3660    1.4040   -1.4490 o         1 MOL     -0.570127
    136 C45        -6.2710    0.6110    1.2620 c3        1 MOL     -0.251802
    137 H62        -3.6730    0.1930    1.5190 hn        1 MOL      0.335935
    138 H63        -5.8510   -0.9850   -0.0660 h1        1 MOL      0.107519
    139 H64        -7.2970    0.8290    0.9840 hc        1 MOL      0.097828
    140 H65        -6.3220    0.0420    2.1870 hc        1 MOL      0.097828
    141 H66        -5.8210    1.5460    1.5940 hc        1 MOL      0.097828
    142 N13        -6.2590    0.6100   -2.1420 n         1 MOL     -0.710557
    143 C46        -7.4780   -0.1670   -2.1170 c3        1 MOL      0.524611
    144 C47        -8.6320    0.6780   -2.6860 c         1 MOL      0.296254
    145 O19        -8.4600    1.2660   -3.7870 o         1 MOL     -0.508969
    146 C48        -7.2730   -1.5590   -2.8290 c3        1 MOL     -0.311747
    147 H67        -6.1870    1.3010   -2.8750 hn        1 MOL      0.335896
    148 H68        -7.7290   -0.2650   -1.0620 h1        1 MOL     -0.145009
    149 H69        -6.8100   -1.3410   -3.7910 hc        1 MOL      0.086177
    150 H70        -6.6030   -2.1960   -2.2520 hc        1 MOL      0.086177
    151 H71        -8.2160   -2.0960   -2.9950 hc        1 MOL      0.086177
    152 N14        -9.8480    0.6830   -2.0990 n         1 MOL     -0.375534
    153 C49       -10.3000   -0.0430   -0.9550 c3        1 MOL      0.051392
    154 C50        -9.8880    0.7340    0.3680 c         1 MOL      0.377932
    155 O20        -9.8000    0.1300    1.4050 o         1 MOL     -0.507014
    156 C51       -11.8680   -0.1380   -0.9470 c3        1 MOL      0.037211
    157 C52       -12.3960   -1.0890    0.1150 c3        1 MOL     -0.272654
    158 C53       -13.8360   -1.4720   -0.2700 c         1 MOL      0.727957
    159 O21       -14.7460   -0.7000    0.0640 o         1 MOL     -0.673373
    160 O22       -14.0530   -2.6150   -0.7590 o         1 MOL     -0.673373
    161 H72       -10.4860    1.2990   -2.5670 hn        1 MOL      0.287349
    162 H73        -9.9530   -1.0740   -0.9440 h1        1 MOL      0.093770
    163 H74       -12.1720   -0.5430   -1.9130 hc        1 MOL      0.012530
    164 H75       -12.2910    0.8630   -0.9110 hc        1 MOL      0.012530
    165 H76       -12.2080   -0.5920    1.0720 hc        1 MOL      0.064505
    166 H77       -11.7280   -1.9460    0.1430 hc        1 MOL      0.064505
    167 N15        -9.7390    2.0400    0.4000 n         1 MOL     -0.179927
    168 C54        -9.2140    2.8100    1.4850 c3        1 MOL     -0.119046
    169 H78        -9.9710    3.5150    1.8300 h1        1 MOL      0.070957
    170 H79        -8.9380    2.1450    2.3030 h1        1 MOL      0.070957
    171 H80        -8.3340    3.3580    1.1500 h1        1 MOL      0.070957
    172 H81       -10.1220    2.5550   -0.3850 hn        1 MOL      0.213393
    173 Ca1         2.5210    0.4260   -0.8130 Ca        1 MOL      1.734259
    174 O23         0.4450    2.0240   -1.4570 oh        1 MOL     -0.834424
    175 H82         0.6160    2.7810   -2.0120 ho        1 MOL      0.413699
    176 H83        -0.5150    1.9670   -1.4330 ho        1 MOL      0.413699
    177 O24         0.3850   -0.8220   -1.9910 oh        1 MOL     -0.834424
    178 H84        -0.5260   -0.6870   -2.2370 ho        1 MOL      0.413699
    179 H85         0.7520   -1.3780   -2.6800 ho        1 MOL      0.413699
    180 O25         2.6040    1.8250   -3.2420 oh        1 MOL     -0.834424
    181 H86         3.3650    2.0230   -3.7940 ho        1 MOL      0.413699
    182 H87         1.8490    2.0560   -3.7750 ho        1 MOL      0.413699
@<TRIPOS>BOND
     1    1    2 1   
     2    1    4 1   
     3    1    5 1   
     4    1    6 1   
     5    2    3 2   
     6    2    7 1   
     7    7    8 1   
     8    7   15 1   
     9    8    9 1   
    10    8   11 1   
    11    8   16 1   
    12    9   10 2   
    13    9   19 1   
    14   11   12 1   
    15   11   17 1   
    16   11   18 1   
    17   12   13 1   
    18   12   14 1   
    19   19   20 1   
    20   19   28 1   
    21   20   21 1   
    22   20   23 1   
    23   20   29 1   
    24   21   22 2   
    25   21   41 1   
    26   23   24 1   
    27   23   30 1   
    28   23   31 1   
    29   24   25 1   
    30   24   32 1   
    31   24   33 1   
    32   25   26 1   
    33   25   34 1   
    34   25   35 1   
    35   26   27 1   
    36   26   36 1   
    37   26   37 1   
    38   27   38 1   
    39   27   39 1   
    40   27   40 1   
    41   41   42 1   
    42   41   49 1   
    43   42   43 1   
    44   42   45 1   
    45   42   50 1   
    46   43   44 2   
    47   43   53 1   
    48   45   46 1   
    49   45   51 1   
    50   45   52 1   
    51   46   47 1   
    52   46   48 1   
    53   53   54 1   
    54   53   57 1   
    55   54   55 1   
    56   54   58 1   
    57   54   59 1   
    58   55   56 2   
    59   55   60 1   
    60   60   61 1   
    61   60   68 1   
    62   61   62 1   
    63   61   64 1   
    64   61   69 1   
    65   62   63 2   
    66   62   74 1   
    67   64   65 1   
    68   64   70 1   
    69   64   71 1   
    70   65   66 1   
    71   65   67 2   
    72   66   72 1   
    73   66   73 1   
    74   74   75 1   
    75   74   78 1   
    76   75   76 1   
    77   75   79 1   
    78   75   80 1   
    79   76   77 2   
    80   76   81 1   
    81   81   82 1   
    82   81   93 1   
    83   82   83 1   
    84   82   85 1   
    85   82   94 1   
    86   83   84 2   
    87   83  102 1   
    88   85   86 1   
    89   85   95 1   
    90   85   96 1   
    91   86   87 ar  
    92   86   88 ar  
    93   87   89 ar  
    94   87   97 1   
    95   88   90 ar  
    96   88   98 1   
    97   89   91 ar  
    98   89   99 1   
    99   90   91 ar  
   100   90  100 1   
   101   91   92 1   
   102   92  101 1   
   103  102  103 1   
   104  102  110 1   
   105  103  104 1   
   106  103  106 1   
   107  103  111 1   
   108  104  105 2   
   109  104  121 1   
   110  106  107 1   
   111  106  108 1   
   112  106  112 1   
   113  107  109 1   
   114  107  113 1   
   115  107  114 1   
   116  108  115 1   
   117  108  116 1   
   118  108  117 1   
   119  109  118 1   
   120  109  119 1   
   121  109  120 1   
   122  121  122 1   
   123  121  127 1   
   124  122  123 1   
   125  122  125 1   
   126  122  128 1   
   127  123  124 2   
   128  123  132 1   
   129  125  126 1   
   130  125  129 1   
   131  125  130 1   
   132  126  131 1   
   133  132  133 1   
   134  132  137 1   
   135  133  134 1   
   136  133  136 1   
   137  133  138 1   
   138  134  135 2   
   139  134  142 1   
   140  136  139 1   
   141  136  140 1   
   142  136  141 1   
   143  142  143 1   
   144  142  147 1   
   145  143  144 1   
   146  143  146 1   
   147  143  148 1   
   148  144  145 2   
   149  144  152 1   
   150  146  149 1   
   151  146  150 1   
   152  146  151 1   
   153  152  153 1   
   154  152  161 1   
   155  153  154 1   
   156  153  156 1   
   157  153  162 1   
   158  154  155 2   
   159  154  167 1   
   160  156  157 1   
   161  156  163 1   
   162  156  164 1   
   163  157  158 1   
   164  157  165 1   
   165  157  166 1   
   166  158  159 1   
   167  158  160 1   
   168  167  168 1   
   169  167  172 1   
   170  168  169 1   
   171  168  170 1   
   172  168  171 1   
   173  174  175 1   
   174  174  176 1   
   175  177  178 1   
   176  177  179 1   
   177  180  181 1   
   178  180  182 1   
@<TRIPOS>SUBSTRUCTURE
     1 MOL         1 TEMP              0 ****  ****    0 ROOT
