@<TRIPOS>MOLECULE
MOL
  192   187     1     0     0
SMALL
resp


@<TRIPOS>ATOM
      1 C1         11.8770    6.0530   -2.4470 c3        1 MOL     -0.383348
      2 C2         11.8760    4.8430   -1.4470 c         1 MOL      0.672653
      3 O1         12.8850    4.1350   -1.3930 o         1 MOL     -0.592780
      4 H1         12.8390    6.1000   -2.9580 hc        1 MOL      0.102781
      5 H2         11.0820    5.9200   -3.1800 hc        1 MOL      0.102781
      6 H3         11.7130    6.9790   -1.8970 hc        1 MOL      0.102781
      7 N1         10.8420    4.5970   -0.6660 n         1 MOL     -0.283059
      8 C3         10.7150    3.4750    0.2340 c3        1 MOL     -0.075491
      9 C4          9.4830    2.6240   -0.2430 c         1 MOL      0.299337
     10 O2          8.4730    3.1220   -0.8140 o         1 MOL     -0.617215
     11 C5         10.5180    4.0020    1.6540 c3        1 MOL     -0.216053
     12 C6          9.4420    5.0550    1.9520 c         1 MOL      0.676911
     13 O3          8.2390    4.8690    1.6850 o         1 MOL     -0.665823
     14 O4          9.8380    6.1290    2.4830 o         1 MOL     -0.665823
     15 H4         10.1860    5.3630   -0.5920 hn        1 MOL      0.166644
     16 H5         11.6190    2.8620    0.2520 h1        1 MOL      0.127384
     17 H6         11.5030    4.3830    1.8910 hc        1 MOL      0.093728
     18 H7         10.3540    3.1190    2.2710 hc        1 MOL      0.093728
     19 N2          9.5940    1.3320    0.0080 n         1 MOL     -0.181463
     20 C7          8.5250    0.3750   -0.3530 c3        1 MOL     -0.051154
     21 C8          7.6280    0.1190    0.8510 c         1 MOL      0.754378
     22 O5          8.0780   -0.4380    1.8410 o         1 MOL     -0.550860
     23 C9          9.1220   -0.9060   -0.9710 c3        1 MOL     -0.295859
     24 C10         8.0870   -1.6780   -1.8660 c3        1 MOL      0.311747
     25 C11         8.7610   -2.8640   -2.5940 c3        1 MOL     -0.078013
     26 C12         7.7700   -3.4870   -3.5790 c3        1 MOL     -0.052465
     27 N3          8.4210   -4.3260   -4.6670 n4        1 MOL     -0.203458
     28 H8         10.3600    1.0150    0.5950 hn        1 MOL      0.254148
     29 H9          7.8260    0.8270   -1.0570 h1        1 MOL      0.165981
     30 H10         9.5280   -1.6040   -0.2430 hc        1 MOL      0.084296
     31 H11         9.9930   -0.6200   -1.5550 hc        1 MOL      0.084296
     32 H12         7.7230   -0.9290   -2.5670 hc        1 MOL     -0.076388
     33 H13         7.1950   -1.9670   -1.3160 hc        1 MOL     -0.076388
     34 H14         8.9780   -3.5720   -1.7970 hc        1 MOL      0.050349
     35 H15         9.6710   -2.6060   -3.1310 hc        1 MOL      0.050349
     36 H16         7.3480   -2.6190   -4.0990 hx        1 MOL      0.097972
     37 H17         7.0780   -4.1300   -3.0450 hx        1 MOL      0.097972
     38 H18         7.7270   -4.8730   -5.1530 hn        1 MOL      0.238772
     39 H19         8.8680   -3.7200   -5.3490 hn        1 MOL      0.238772
     40 H20         9.1580   -4.8100   -4.1660 hn        1 MOL      0.238772
     41 N4          6.3510    0.4240    0.6320 n         1 MOL     -1.168085
     42 C13         5.2920   -0.0660    1.4830 c3        1 MOL      0.918704
     43 C14         4.1020   -0.5470    0.6130 c         1 MOL      0.290995
     44 O6          3.9280   -0.1140   -0.5330 o         1 MOL     -0.493451
     45 C15         4.8470    0.9760    2.4470 c3        1 MOL     -0.074155
     46 C16         4.5540    2.3680    1.8940 c         1 MOL      0.734887
     47 O7          3.4570    2.5730    1.3600 o         1 MOL     -0.705681
     48 O8          5.4420    3.2540    1.8110 o         1 MOL     -0.705681
     49 H21         6.0850    0.8180   -0.2630 hn        1 MOL      0.470031
     50 H22         5.6120   -0.9150    2.0870 h1        1 MOL     -0.092254
     51 H23         5.7120    1.1530    3.0860 hc        1 MOL     -0.038923
     52 H24         3.9610    0.6590    3.0010 hc        1 MOL     -0.038923
     53 N5          3.2090   -1.4550    1.1010 n         1 MOL     -0.387140
     54 C17         3.0530   -2.0680    2.4110 c3        1 MOL     -0.079866
     55 C18         3.0250   -3.5710    2.2480 c         1 MOL      0.619564
     56 O9          3.0670   -4.1580    1.1640 o         1 MOL     -0.622999
     57 H25         2.5320   -1.7930    0.4360 hn        1 MOL      0.283954
     58 H26         2.1210   -1.8180    2.8990 h1        1 MOL      0.080895
     59 H27         3.9800   -1.9140    2.9600 h1        1 MOL      0.080895
     60 N6          2.8290   -4.3870    3.3140 n         1 MOL     -0.188144
     61 C19         2.8450   -5.9030    3.1450 c3        1 MOL     -0.347816
     62 C20         1.5530   -6.4330    2.4720 c         1 MOL      0.593052
     63 O10         1.5760   -7.4920    1.8030 o         1 MOL     -0.531552
     64 C21         3.1810   -6.5980    4.5190 c3        1 MOL     -0.136280
     65 C22         2.2540   -6.1350    5.6240 c         1 MOL      0.646616
     66 O11         2.4650   -5.0440    6.2050 o         1 MOL     -0.634084
     67 O12         1.3950   -6.9290    6.0500 o         1 MOL     -0.634084
     68 H28         2.7040   -3.8970    4.1870 hn        1 MOL      0.145635
     69 H29         3.6670   -6.1640    2.4740 h1        1 MOL      0.177224
     70 H30         4.1790   -6.2420    4.7250 hc        1 MOL      0.072583
     71 H31         3.1600   -7.6860    4.4590 hc        1 MOL      0.072583
     72 N7          0.3890   -5.7030    2.4880 n         1 MOL     -0.265642
     73 C23        -0.8370   -6.0780    1.7730 c3        1 MOL     -0.169625
     74 C24        -0.8120   -5.6850    0.3370 c         1 MOL      0.570795
     75 O13        -1.6970   -6.0930   -0.4710 o         1 MOL     -0.579947
     76 H32         0.5590   -4.7670    2.8090 hn        1 MOL      0.209727
     77 H33        -1.7030   -5.5790    2.2110 h1        1 MOL      0.119063
     78 H34        -0.8940   -7.1660    1.8060 h1        1 MOL      0.119063
     79 N8          0.1510   -4.7960   -0.0560 n         1 MOL     -0.240426
     80 C25         0.3640   -4.1690   -1.4050 c3        1 MOL     -0.000661
     81 C26         0.1760   -2.6520   -1.3850 c         1 MOL      0.370191
     82 O14         0.4240   -2.0010   -0.3650 o         1 MOL     -0.468051
     83 C27         1.6940   -4.5660   -1.9530 c3        1 MOL      0.473650
     84 C28         1.9870   -6.0830   -1.9320 c3        1 MOL     -0.554644
     85 O15         1.7570   -4.1880   -3.3090 oh        1 MOL     -0.677052
     86 H35         0.7260   -4.4820    0.7000 hn        1 MOL      0.172768
     87 H36        -0.4000   -4.5770   -2.0640 h1        1 MOL      0.007567
     88 H37         2.4670   -3.9980   -1.4440 h1        1 MOL      0.012130
     89 H38         1.4570   -4.9490   -3.8140 ho        1 MOL      0.374581
     90 H39         2.0670   -6.4930   -0.9250 hc        1 MOL      0.143464
     91 H40         1.2570   -6.7460   -2.4050 hc        1 MOL      0.143464
     92 H41         2.9750   -6.0640   -2.3800 hc        1 MOL      0.143464
     93 N9         -0.4490   -2.1580   -2.4700 n         1 MOL     -0.083791
     94 C29        -0.8180   -0.7380   -2.3950 c3        1 MOL     -0.097607
     95 C30        -2.0800   -0.5560   -1.6400 c         1 MOL      0.471161
     96 O16        -2.2660    0.4630   -0.9050 o         1 MOL     -0.515765
     97 C31        -0.9610   -0.2360   -3.8330 c3        1 MOL      0.141560
     98 C32         0.2760   -0.2760   -4.6690 c3        1 MOL      0.040649
     99 C33        -1.3700    1.2440   -3.8680 c3        1 MOL     -0.384208
    100 C34         1.5000    0.4040   -4.0630 c3        1 MOL     -0.058551
    101 H42        -0.4910   -2.7250   -3.3140 hn        1 MOL      0.198955
    102 H43        -0.0370   -0.2000   -1.8590 h1        1 MOL      0.130288
    103 H44        -1.7450   -0.8350   -4.2870 hc        1 MOL     -0.014503
    104 H45         0.0800    0.1480   -5.6550 hc        1 MOL     -0.027671
    105 H46         0.5790   -1.3180   -4.8140 hc        1 MOL     -0.027671
    106 H47        -0.7130    1.8180   -3.2070 hc        1 MOL      0.109691
    107 H48        -1.3980    1.6520   -4.8760 hc        1 MOL      0.109691
    108 H49        -2.3900    1.2680   -3.4700 hc        1 MOL      0.109691
    109 H50         2.2380    0.5970   -4.8450 hc        1 MOL      0.010658
    110 H51         1.2610    1.3010   -3.5000 hc        1 MOL      0.010658
    111 H52         1.9000   -0.3100   -3.3320 hc        1 MOL      0.010658
    112 N10        -3.0510   -1.4910   -1.7840 n         1 MOL     -0.288828
    113 C35        -4.3440   -1.4150   -1.0970 c3        1 MOL     -0.074179
    114 C36        -5.4580   -1.9140   -1.9580 c         1 MOL      0.673150
    115 O17        -5.2290   -2.4640   -3.0300 o         1 MOL     -0.530167
    116 C37        -4.3130   -2.2800    0.2100 c3        1 MOL      0.210897
    117 C38        -4.0950   -3.7410    0.0010 c3        1 MOL     -0.287758
    118 O18        -3.2530   -1.7370    1.0140 oh        1 MOL     -0.538998
    119 H53        -2.7820   -2.3200   -2.2800 hn        1 MOL      0.169009
    120 H54        -4.6170   -0.3940   -0.8490 h1        1 MOL      0.100742
    121 H55        -5.2390   -2.1770    0.7800 h1        1 MOL      0.012998
    122 H56        -3.6600   -1.2950    1.7630 ho        1 MOL      0.386474
    123 H57        -4.8970   -4.1580   -0.6200 hc        1 MOL      0.086699
    124 H58        -3.1090   -3.9450   -0.4170 hc        1 MOL      0.086699
    125 H59        -3.9970   -4.3010    0.9250 hc        1 MOL      0.086699
    126 N11        -6.7080   -1.6280   -1.5280 n         1 MOL     -0.603034
    127 C39        -7.9940   -1.7750   -2.2450 c3        1 MOL     -0.044645
    128 C40        -8.9090   -0.5310   -2.1680 c         1 MOL      0.735316
    129 O19        -9.2950   -0.0380   -3.1920 o         1 MOL     -0.555856
    130 C41        -8.7450   -3.0410   -1.7130 c3        1 MOL      0.288037
    131 C42        -9.9700   -3.3990   -2.5520 c3        1 MOL     -0.469596
    132 O20        -9.2120   -2.8560   -0.4390 oh        1 MOL     -0.577706
    133 H60        -6.8010   -1.1780   -0.6270 hn        1 MOL      0.282774
    134 H61        -7.7630   -1.9540   -3.2940 h1        1 MOL      0.100496
    135 H62        -8.0400   -3.8750   -1.7330 h1        1 MOL      0.049786
    136 H63        -8.5760   -3.2860    0.1330 ho        1 MOL      0.380851
    137 H64        -9.7650   -3.5560   -3.6050 hc        1 MOL      0.129557
    138 H65       -10.3600   -4.3300   -2.1320 hc        1 MOL      0.129557
    139 H66       -10.6840   -2.5770   -2.5510 hc        1 MOL      0.129557
    140 N12        -9.1750    0.0780   -0.9620 n         1 MOL     -0.580979
    141 C43        -9.9660    1.3330   -0.6300 c3        1 MOL     -0.057645
    142 C44        -9.2790    2.0320    0.5690 c         1 MOL      0.699608
    143 O21        -9.0450    1.4540    1.6380 o         1 MOL     -0.527515
    144 C45       -11.5150    1.0160   -0.4110 c3        1 MOL      0.023727
    145 C46       -12.3840    2.1060    0.0920 c3        1 MOL     -0.073004
    146 C47       -13.8040    1.5630    0.2760 c3        1 MOL     -0.081282
    147 C48       -13.9760    0.4530    1.3550 c3        1 MOL      0.023880
    148 N13       -15.2720   -0.2570    1.4210 n4        1 MOL     -0.312021
    149 H67        -8.6380   -0.3230   -0.2140 hn        1 MOL      0.272836
    150 H68        -9.8610    1.9520   -1.5180 h1        1 MOL      0.100279
    151 H69       -11.5290    0.2280    0.3530 hc        1 MOL      0.026927
    152 H70       -11.9100    0.6320   -1.3520 hc        1 MOL      0.026927
    153 H71       -12.3340    2.8630   -0.6880 hc        1 MOL      0.050096
    154 H72       -11.8910    2.4970    0.9800 hc        1 MOL      0.050096
    155 H73       -14.0660    1.0910   -0.6660 hc        1 MOL      0.063339
    156 H74       -14.5220    2.3830    0.3640 hc        1 MOL      0.063339
    157 H75       -13.7230    0.8820    2.3190 hx        1 MOL      0.093302
    158 H76       -13.2750   -0.3770    1.2760 hx        1 MOL      0.093302
    159 H77       -15.3860   -0.8060    2.2610 hn        1 MOL      0.274223
    160 H78       -16.0170    0.4220    1.4040 hn        1 MOL      0.274223
    161 H79       -15.4900   -0.8940    0.6640 hn        1 MOL      0.274223
    162 N14        -9.0220    3.3950    0.4150 n         1 MOL     -0.646998
    163 C49        -8.2740    4.1920    1.4100 c3        1 MOL      0.416412
    164 C50        -6.7090    3.9800    1.4370 c         1 MOL      0.323187
    165 O22        -6.2870    3.3050    2.3760 o         1 MOL     -0.522645
    166 C51        -8.6040    5.7010    1.2180 c3        1 MOL      0.061582
    167 C52        -9.8660    6.2030    1.9480 c3        1 MOL     -0.277291
    168 C53       -10.3130    7.6440    1.5980 c         1 MOL      0.735210
    169 O23        -9.6280    8.3070    0.7950 o         1 MOL     -0.658906
    170 O24       -11.3840    8.1570    2.0870 o         1 MOL     -0.658906
    171 H80        -9.2720    3.8150   -0.4770 hn        1 MOL      0.293619
    172 H81        -8.5830    3.9210    2.4210 h1        1 MOL     -0.007753
    173 H82        -8.7930    5.9420    0.1760 hc        1 MOL      0.014463
    174 H83        -7.7380    6.3070    1.5120 hc        1 MOL      0.014463
    175 H84        -9.5790    6.1250    2.9970 hc        1 MOL      0.028579
    176 H85       -10.6440    5.4840    1.6930 hc        1 MOL      0.028579
    177 N15        -5.8580    4.4190    0.5190 n         1 MOL     -0.379872
    178 C54        -6.1680    5.0560   -0.8030 c3        1 MOL     -0.043472
    179 H86        -7.2180    5.3460   -0.8280 h1        1 MOL      0.049515
    180 H87        -5.5450    5.9400   -0.9360 h1        1 MOL      0.049515
    181 H88        -5.9690    4.3460   -1.6050 h1        1 MOL      0.049515
    182 H89        -4.8670    4.2190    0.6090 hn        1 MOL      0.318473
    183 Ca1         6.4100    4.5060   -0.1340 Ca        1 MOL      1.763032
    184 O25         3.7710    4.3160   -0.4440 oh        1 MOL     -0.951339
    185 H90         3.6960    3.7090    0.2970 ho        1 MOL      0.445023
    186 H91         3.1740    5.0300   -0.2330 ho        1 MOL      0.445023
    187 O26         5.7710    6.3040    1.6810 oh        1 MOL     -0.951339
    188 H92         6.4420    6.4840    2.3360 ho        1 MOL      0.445023
    189 H93         4.9590    6.6390    2.0670 ho        1 MOL      0.445023
    190 O27         5.9100    2.2450   -1.5680 oh        1 MOL     -0.951339
    191 H94         5.1790    1.6510   -1.7590 ho        1 MOL      0.445023
    192 H95         6.3580    2.3410   -2.4090 ho        1 MOL      0.445023
@<TRIPOS>BOND
     1    1    2 1   
     2    1    4 1   
     3    1    5 1   
     4    1    6 1   
     5    2    3 2   
     6    2    7 1   
     7    7    8 1   
     8    7   15 1   
     9    8    9 1   
    10    8   11 1   
    11    8   16 1   
    12    9   10 2   
    13    9   19 1   
    14   11   12 1   
    15   11   17 1   
    16   11   18 1   
    17   12   13 1   
    18   12   14 1   
    19   19   20 1   
    20   19   28 1   
    21   20   21 1   
    22   20   23 1   
    23   20   29 1   
    24   21   22 2   
    25   21   41 1   
    26   23   24 1   
    27   23   30 1   
    28   23   31 1   
    29   24   25 1   
    30   24   32 1   
    31   24   33 1   
    32   25   26 1   
    33   25   34 1   
    34   25   35 1   
    35   26   27 1   
    36   26   36 1   
    37   26   37 1   
    38   27   38 1   
    39   27   39 1   
    40   27   40 1   
    41   41   42 1   
    42   41   49 1   
    43   42   43 1   
    44   42   45 1   
    45   42   50 1   
    46   43   44 2   
    47   43   53 1   
    48   45   46 1   
    49   45   51 1   
    50   45   52 1   
    51   46   47 1   
    52   46   48 1   
    53   53   54 1   
    54   53   57 1   
    55   54   55 1   
    56   54   58 1   
    57   54   59 1   
    58   55   56 2   
    59   55   60 1   
    60   60   61 1   
    61   60   68 1   
    62   61   62 1   
    63   61   64 1   
    64   61   69 1   
    65   62   63 2   
    66   62   72 1   
    67   64   65 1   
    68   64   70 1   
    69   64   71 1   
    70   65   66 1   
    71   65   67 1   
    72   72   73 1   
    73   72   76 1   
    74   73   74 1   
    75   73   77 1   
    76   73   78 1   
    77   74   75 2   
    78   74   79 1   
    79   79   80 1   
    80   79   86 1   
    81   80   81 1   
    82   80   83 1   
    83   80   87 1   
    84   81   82 2   
    85   81   93 1   
    86   83   84 1   
    87   83   85 1   
    88   83   88 1   
    89   84   90 1   
    90   84   91 1   
    91   84   92 1   
    92   85   89 1   
    93   93   94 1   
    94   93  101 1   
    95   94   95 1   
    96   94   97 1   
    97   94  102 1   
    98   95   96 2   
    99   95  112 1   
   100   97   98 1   
   101   97   99 1   
   102   97  103 1   
   103   98  100 1   
   104   98  104 1   
   105   98  105 1   
   106   99  106 1   
   107   99  107 1   
   108   99  108 1   
   109  100  109 1   
   110  100  110 1   
   111  100  111 1   
   112  112  113 1   
   113  112  119 1   
   114  113  114 1   
   115  113  116 1   
   116  113  120 1   
   117  114  115 2   
   118  114  126 1   
   119  116  117 1   
   120  116  118 1   
   121  116  121 1   
   122  117  123 1   
   123  117  124 1   
   124  117  125 1   
   125  118  122 1   
   126  126  127 1   
   127  126  133 1   
   128  127  128 1   
   129  127  130 1   
   130  127  134 1   
   131  128  129 2   
   132  128  140 1   
   133  130  131 1   
   134  130  132 1   
   135  130  135 1   
   136  131  137 1   
   137  131  138 1   
   138  131  139 1   
   139  132  136 1   
   140  140  141 1   
   141  140  149 1   
   142  141  142 1   
   143  141  144 1   
   144  141  150 1   
   145  142  143 2   
   146  142  162 1   
   147  144  145 1   
   148  144  151 1   
   149  144  152 1   
   150  145  146 1   
   151  145  153 1   
   152  145  154 1   
   153  146  147 1   
   154  146  155 1   
   155  146  156 1   
   156  147  148 1   
   157  147  157 1   
   158  147  158 1   
   159  148  159 1   
   160  148  160 1   
   161  148  161 1   
   162  162  163 1   
   163  162  171 1   
   164  163  164 1   
   165  163  166 1   
   166  163  172 1   
   167  164  165 2   
   168  164  177 1   
   169  166  167 1   
   170  166  173 1   
   171  166  174 1   
   172  167  168 1   
   173  167  175 1   
   174  167  176 1   
   175  168  169 1   
   176  168  170 1   
   177  177  178 1   
   178  177  182 1   
   179  178  179 1   
   180  178  180 1   
   181  178  181 1   
   182  184  185 1   
   183  184  186 1   
   184  187  188 1   
   185  187  189 1   
   186  190  191 1   
   187  190  192 1   
@<TRIPOS>SUBSTRUCTURE
     1 MOL         1 TEMP              0 ****  ****    0 ROOT
