@<TRIPOS>MOLECULE
MOL
  181   177     1     0     0
SMALL
resp


@<TRIPOS>ATOM
      1 C1          5.5810   -1.7150    6.6780 c3        1 MOL     -0.293526
      2 C2          4.9980   -1.4530    5.3030 c         1 MOL      0.701558
      3 O1          3.7800   -1.3940    5.1390 o         1 MOL     -0.568554
      4 H1          6.3660   -0.9880    6.8840 hc        1 MOL      0.070392
      5 H2          4.7960   -1.6250    7.4290 hc        1 MOL      0.070392
      6 H3          6.0010   -2.7210    6.7090 hc        1 MOL      0.070392
      7 N1          5.7100   -1.4640    4.1970 n         1 MOL     -0.705100
      8 C3          7.1520   -1.5520    3.9650 c3        1 MOL      0.411760
      9 C4          7.5970   -2.6840    3.0600 c         1 MOL      0.248212
     10 O2          6.7990   -3.6680    2.9500 o         1 MOL     -0.437794
     11 C5          7.7310   -0.2070    3.5050 c3        1 MOL     -0.303028
     12 C6          7.2700    0.2600    2.2110 c         1 MOL      0.815082
     13 O3          6.5440    1.2830    2.0660 o         1 MOL     -0.787829
     14 O4          7.7500   -0.1440    1.1420 o         1 MOL     -0.787829
     15 H4          5.0970   -1.4160    3.3990 hn        1 MOL      0.439675
     16 H5          7.6760   -1.6710    4.9150 h1        1 MOL     -0.011437
     17 H6          8.8170   -0.2860    3.5360 hc        1 MOL      0.049189
     18 H7          7.5010    0.5000    4.3080 hc        1 MOL      0.049189
     19 N2          8.7090   -2.6410    2.3330 n         1 MOL     -0.427919
     20 C7          8.9680   -3.5230    1.1770 c3        1 MOL      0.364049
     21 C8          7.7090   -3.7040    0.2460 c         1 MOL      0.199901
     22 O5          7.4910   -4.8300   -0.1990 o         1 MOL     -0.488129
     23 C9          9.7550   -4.7380    1.7780 c3        1 MOL     -0.212483
     24 H8          9.3350   -1.8920    2.5660 hn        1 MOL      0.260656
     25 H9          9.6350   -2.9600    0.5170 h1        1 MOL     -0.011921
     26 H10         9.1350   -5.6180    1.8540 hc        1 MOL      0.049133
     27 H11        10.4930   -5.0340    1.0330 hc        1 MOL      0.049133
     28 H12        10.3440   -4.4880    2.6640 hc        1 MOL      0.049133
     29 N3          6.8990   -2.6720   -0.0140 n         1 MOL      0.068908
     30 C10         5.8720   -2.7320   -1.0480 c3        1 MOL     -0.157721
     31 C11         6.0780   -1.7730   -2.2250 c         1 MOL      0.515714
     32 O6          6.4360   -0.6600   -2.0450 o         1 MOL     -0.570026
     33 C12         4.3910   -2.5400   -0.4200 c3        1 MOL      0.140386
     34 C13         4.2190   -1.3520    0.5460 c         1 MOL      0.573061
     35 O7          3.9640   -1.7000    1.6900 o         1 MOL     -0.665947
     36 O8          4.5920   -0.1850    0.1710 o         1 MOL     -0.665947
     37 H13         7.1560   -1.7560    0.3260 hn        1 MOL      0.128601
     38 H14         5.8490   -3.7210   -1.4950 h1        1 MOL      0.035748
     39 H15         4.1350   -3.4110    0.1730 hc        1 MOL     -0.016182
     40 H16         3.7050   -2.4890   -1.2570 hc        1 MOL     -0.016182
     41 N4          5.6990   -2.2110   -3.4430 n         1 MOL     -0.394682
     42 C14         5.7280   -1.3600   -4.6070 c3        1 MOL     -0.311315
     43 C15         4.5740   -0.4200   -4.6040 c         1 MOL      0.524968
     44 O9          4.4740    0.4890   -5.4250 o         1 MOL     -0.533663
     45 H17         5.1460   -3.0450   -3.5520 hn        1 MOL      0.302168
     46 H18         5.7560   -1.9030   -5.5570 h1        1 MOL      0.163621
     47 H19         6.6850   -0.8320   -4.6190 h1        1 MOL      0.163621
     48 N5          3.6150   -0.6050   -3.6600 n         1 MOL     -0.193681
     49 C16         2.5110    0.3210   -3.4900 c3        1 MOL     -0.273751
     50 C17         3.0250    1.7050   -2.9610 c         1 MOL      0.633313
     51 O10         4.1720    1.7870   -2.4420 o         1 MOL     -0.640167
     52 C18         1.4140   -0.3870   -2.6760 c3        1 MOL     -0.077072
     53 C19         0.6440   -1.3290   -3.5530 c         1 MOL      0.613300
     54 N6          0.3050   -2.4550   -2.9900 n         1 MOL     -0.747052
     55 O11         0.4210   -1.1330   -4.7580 o         1 MOL     -0.522630
     56 H20         3.6180   -1.3930   -3.0350 hn        1 MOL      0.234023
     57 H21         2.1110    0.5200   -4.4840 h1        1 MOL      0.120124
     58 H22         0.6920    0.2400   -2.1650 hc        1 MOL      0.011944
     59 H23         1.8770   -0.9600   -1.8730 hc        1 MOL      0.011944
     60 H24         0.5180   -2.6790   -2.0280 hn        1 MOL      0.373478
     61 H25        -0.3770   -3.0020   -3.4950 hn        1 MOL      0.373478
     62 N7          2.2380    2.7670   -3.0270 n         1 MOL     -0.358484
     63 C20         2.5700    4.0380   -2.5080 c3        1 MOL      0.059209
     64 C21         1.3790    5.0400   -2.6060 c         1 MOL      0.435210
     65 O12         1.1600    5.6380   -3.6800 o         1 MOL     -0.516231
     66 H26         1.3310    2.5720   -3.4290 hn        1 MOL      0.319668
     67 H27         3.3780    4.4210   -3.1450 h1        1 MOL      0.027488
     68 H28         3.0200    4.0480   -1.5140 h1        1 MOL      0.027488
     69 N8          0.5310    5.1950   -1.5420 n         1 MOL     -0.285133
     70 C22         0.7340    4.4300   -0.2360 c3        1 MOL     -0.395091
     71 C23        -0.6560    3.9380    0.2600 c         1 MOL      0.612275
     72 O13        -1.6190    4.7410    0.2880 o         1 MOL     -0.466385
     73 C24         1.4270    5.3850    0.7840 c3        1 MOL      0.189746
     74 C25         1.6220    4.7780    2.1150 c3        1 MOL     -0.234422
     75 O14         2.7390    5.6810    0.3160 oh        1 MOL     -0.590872
     76 H29        -0.2200    5.8730   -1.5330 hn        1 MOL      0.300066
     77 H30         1.4060    3.5830   -0.2940 h1        1 MOL      0.170387
     78 H31         0.9710    6.3540    1.0010 h1        1 MOL      0.090175
     79 H32         2.6150    6.3390   -0.3600 ho        1 MOL      0.395514
     80 H33         2.2300    5.4360    2.7450 hc        1 MOL      0.086420
     81 H34         0.7340    4.6720    2.7350 hc        1 MOL      0.086420
     82 H35         2.1740    3.8430    2.0050 hc        1 MOL      0.086420
     83 N9         -0.7230    2.6130    0.7370 n         1 MOL     -0.329484
     84 C26        -1.8820    1.8190    1.2280 c3        1 MOL     -0.402700
     85 C27        -2.3240    2.4270    2.5460 c         1 MOL      0.557244
     86 O15        -1.6640    2.3410    3.5700 o         1 MOL     -0.577275
     87 C28        -1.5650    0.3480    1.3310 c3        1 MOL      0.131411
     88 C29        -0.9400   -0.2390    0.0640 c3        1 MOL     -0.152120
     89 C30        -2.8250   -0.4060    1.9340 c3        1 MOL     -0.117935
     90 C31        -1.8770   -0.1420   -1.0900 c3        1 MOL     -0.199753
     91 H36         0.1200    2.0530    0.6430 hn        1 MOL      0.280875
     92 H37        -2.6830    2.0100    0.5120 h1        1 MOL      0.212670
     93 H38        -0.8150    0.1030    2.0850 hc        1 MOL      0.067902
     94 H39        -0.8090   -1.2940    0.3170 hc        1 MOL      0.039556
     95 H40        -0.0410    0.3020   -0.2470 hc        1 MOL      0.039556
     96 H41        -2.6350   -1.4770    1.9970 hc        1 MOL      0.059425
     97 H42        -3.0040   -0.1050    2.9580 hc        1 MOL      0.059425
     98 H43        -3.7210   -0.2850    1.3150 hc        1 MOL      0.059425
     99 H44        -1.5760   -0.7020   -1.9770 hc        1 MOL      0.075143
    100 H45        -2.8640   -0.5420   -0.8840 hc        1 MOL      0.075143
    101 H46        -2.0570    0.8900   -1.3930 hc        1 MOL      0.075143
    102 N10        -3.4910    3.0640    2.6100 n         1 MOL     -0.392526
    103 C32        -4.5500    3.2210    1.6520 c3        1 MOL      0.306704
    104 C33        -5.6510    2.1390    1.8440 c         1 MOL      0.501310
    105 O16        -5.7260    1.5370    2.9390 o         1 MOL     -0.622992
    106 C34        -5.0780    4.6900    1.7710 c3        1 MOL     -0.183198
    107 C35        -5.8160    5.2900    0.6300 c         1 MOL      0.669436
    108 O17        -5.9230    6.5110    0.5610 o         1 MOL     -0.705304
    109 O18        -6.1950    4.5080   -0.2910 o         1 MOL     -0.705304
    110 H47        -3.6710    3.3520    3.5560 hn        1 MOL      0.262976
    111 H48        -4.2350    3.0760    0.6150 h1        1 MOL     -0.020210
    112 H49        -4.1940    5.2320    2.1340 hc        1 MOL      0.020897
    113 H50        -5.6690    4.7740    2.6810 hc        1 MOL      0.020897
    114 N11        -6.4770    1.9240    0.8750 n         1 MOL     -0.620285
    115 C36        -7.4530    0.8150    0.8590 c3        1 MOL      0.485012
    116 C37        -7.9630    0.5440   -0.5000 c         1 MOL      0.196009
    117 O19        -8.0560    1.4830   -1.2690 o         1 MOL     -0.460984
    118 C38        -8.6640    1.2480    1.6770 c3        1 MOL     -0.293570
    119 C39        -9.7470    0.1840    1.7940 ca        1 MOL      0.155728
    120 C40       -10.7270    0.0540    0.8600 ca        1 MOL     -0.231466
    121 C41        -9.6380   -0.8140    2.7860 ca        1 MOL     -0.231466
    122 C42       -11.7190   -0.9900    0.8660 ca        1 MOL     -0.070754
    123 C43       -10.5290   -1.8840    2.7580 ca        1 MOL     -0.070754
    124 C44       -11.6410   -1.9360    1.8950 ca        1 MOL     -0.154203
    125 H51        -6.3720    2.4180   -0.0060 hn        1 MOL      0.352349
    126 H52        -6.9770   -0.0410    1.3320 h1        1 MOL     -0.015696
    127 H53        -9.0920    2.1140    1.1770 hc        1 MOL      0.112481
    128 H54        -8.4400    1.5460    2.6960 hc        1 MOL      0.112481
    129 H55       -10.8300    0.8150    0.0980 ha        1 MOL      0.132433
    130 H56        -8.7960   -0.8790    3.4580 ha        1 MOL      0.132433
    131 H57       -12.5760   -1.0430    0.2150 ha        1 MOL      0.089306
    132 H58       -10.4790   -2.6820    3.4880 ha        1 MOL      0.089306
    133 H59       -12.3600   -2.7230    2.0740 ha        1 MOL      0.098069
    134 N12        -8.2350   -0.7320   -0.9310 n         1 MOL      0.031562
    135 C45        -7.8430   -1.9750   -0.2760 c3        1 MOL     -0.069289
    136 C46        -6.3270   -2.1680   -0.4310 c         1 MOL      0.697164
    137 O20        -5.6710   -1.2040   -0.7310 o         1 MOL     -0.523736
    138 C47        -8.7280   -3.0350   -0.9780 c3        1 MOL      0.000600
    139 C48        -8.8650   -2.4610   -2.3770 c3        1 MOL      0.070075
    140 C49        -9.0870   -1.0020   -2.0780 c3        1 MOL      0.149903
    141 H60        -8.0990   -1.9840    0.7800 h1        1 MOL     -0.021458
    142 H61        -8.3660   -4.0580   -1.0300 hc        1 MOL     -0.014495
    143 H62        -9.6130   -3.0440   -0.3340 hc        1 MOL     -0.014495
    144 H63        -7.9870   -2.6450   -2.9860 hc        1 MOL     -0.012726
    145 H64        -9.7850   -2.8670   -2.8020 hc        1 MOL     -0.012726
    146 H65        -8.8600   -0.4080   -2.9580 h1        1 MOL     -0.022083
    147 H66       -10.1630   -0.8460   -1.9920 h1        1 MOL     -0.022083
    148 N13        -5.7630   -3.3630   -0.2510 n         1 MOL     -0.667265
    149 C50        -4.2090   -3.5820   -0.1480 c3        1 MOL      0.557214
    150 C51        -3.6990   -4.8280    0.6940 c         1 MOL      0.318225
    151 O21        -3.0070   -5.6950    0.1900 o         1 MOL     -0.498945
    152 C52        -3.5790   -3.5540   -1.5400 c3        1 MOL     -0.154427
    153 C53        -3.9810   -4.5710   -2.6080 c3        1 MOL     -0.005480
    154 C54        -5.1330   -4.2220   -3.4900 c         1 MOL      0.696802
    155 O22        -6.1950   -4.9450   -3.4660 o         1 MOL     -0.735228
    156 O23        -5.0420   -3.2210   -4.2090 o         1 MOL     -0.735228
    157 H67        -6.3610   -4.0980    0.0980 hn        1 MOL      0.301051
    158 H68        -3.8490   -2.7150    0.3960 h1        1 MOL     -0.120420
    159 H69        -2.5070   -3.7510   -1.4890 hc        1 MOL      0.031099
    160 H70        -3.7180   -2.5410   -1.9230 hc        1 MOL      0.031099
    161 H71        -4.1580   -5.5700   -2.1970 hc        1 MOL     -0.041398
    162 H72        -3.1190   -4.7730   -3.2360 hc        1 MOL     -0.041398
    163 N14        -4.1010   -4.9150    1.9600 n         1 MOL     -0.375800
    164 C55        -5.0230   -3.9670    2.6790 c3        1 MOL     -0.032295
    165 H73        -5.0100   -2.9980    2.1790 h1        1 MOL      0.052342
    166 H74        -6.0370   -4.3680    2.6670 h1        1 MOL      0.052342
    167 H75        -4.6910   -3.8480    3.7090 h1        1 MOL      0.052342
    168 H76        -3.8590   -5.7520    2.4630 hn        1 MOL      0.279921
    169 Ca1         6.2220    1.6180   -0.5070 Ca        1 MOL      1.800208
    170 O24         6.6900    3.1840   -2.6150 oh        1 MOL     -0.832894
    171 H77         6.1980    2.9590   -3.3970 ho        1 MOL      0.414161
    172 H78         7.1750    3.9790   -2.8510 ho        1 MOL      0.414161
    173 O25         7.3700    3.7590    0.6710 oh        1 MOL     -0.832894
    174 H79         7.1190    3.9180    1.5790 ho        1 MOL      0.414161
    175 H80         8.2600    4.1000    0.6060 ho        1 MOL      0.414161
    176 O26         4.1180    3.1410    0.5000 oh        1 MOL     -0.832894
    177 H81         3.6810    3.9630    0.2830 ho        1 MOL      0.414161
    178 H82         3.7590    2.9030    1.3580 ho        1 MOL      0.414161
    179 O27         8.7740    1.4150   -1.4530 oh        1 MOL     -0.832894
    180 H83         9.5520    1.9780   -1.5340 ho        1 MOL      0.414161
    181 H84         8.8670    0.7810   -2.1660 ho        1 MOL      0.414161
@<TRIPOS>BOND
     1    1    2 1   
     2    1    4 1   
     3    1    5 1   
     4    1    6 1   
     5    2    3 2   
     6    2    7 1   
     7    7    8 1   
     8    7   15 1   
     9    8    9 1   
    10    8   11 1   
    11    8   16 1   
    12    9   10 2   
    13    9   19 1   
    14   11   12 1   
    15   11   17 1   
    16   11   18 1   
    17   12   13 1   
    18   12   14 1   
    19   19   20 1   
    20   19   24 1   
    21   20   21 1   
    22   20   23 1   
    23   20   25 1   
    24   21   22 2   
    25   21   29 1   
    26   23   26 1   
    27   23   27 1   
    28   23   28 1   
    29   29   30 1   
    30   29   37 1   
    31   30   31 1   
    32   30   33 1   
    33   30   38 1   
    34   31   32 2   
    35   31   41 1   
    36   33   34 1   
    37   33   39 1   
    38   33   40 1   
    39   34   35 1   
    40   34   36 1   
    41   41   42 1   
    42   41   45 1   
    43   42   43 1   
    44   42   46 1   
    45   42   47 1   
    46   43   44 2   
    47   43   48 1   
    48   48   49 1   
    49   48   56 1   
    50   49   50 1   
    51   49   52 1   
    52   49   57 1   
    53   50   51 2   
    54   50   62 1   
    55   52   53 1   
    56   52   58 1   
    57   52   59 1   
    58   53   54 1   
    59   53   55 2   
    60   54   60 1   
    61   54   61 1   
    62   62   63 1   
    63   62   66 1   
    64   63   64 1   
    65   63   67 1   
    66   63   68 1   
    67   64   65 2   
    68   64   69 1   
    69   69   70 1   
    70   69   76 1   
    71   70   71 1   
    72   70   73 1   
    73   70   77 1   
    74   71   72 2   
    75   71   83 1   
    76   73   74 1   
    77   73   75 1   
    78   73   78 1   
    79   74   80 1   
    80   74   81 1   
    81   74   82 1   
    82   75   79 1   
    83   83   84 1   
    84   83   91 1   
    85   84   85 1   
    86   84   87 1   
    87   84   92 1   
    88   85   86 2   
    89   85  102 1   
    90   87   88 1   
    91   87   89 1   
    92   87   93 1   
    93   88   90 1   
    94   88   94 1   
    95   88   95 1   
    96   89   96 1   
    97   89   97 1   
    98   89   98 1   
    99   90   99 1   
   100   90  100 1   
   101   90  101 1   
   102  102  103 1   
   103  102  110 1   
   104  103  104 1   
   105  103  106 1   
   106  103  111 1   
   107  104  105 2   
   108  104  114 1   
   109  106  107 1   
   110  106  112 1   
   111  106  113 1   
   112  107  108 1   
   113  107  109 1   
   114  114  115 1   
   115  114  125 1   
   116  115  116 1   
   117  115  118 1   
   118  115  126 1   
   119  116  117 2   
   120  116  134 1   
   121  118  119 1   
   122  118  127 1   
   123  118  128 1   
   124  119  120 ar  
   125  119  121 ar  
   126  120  122 ar  
   127  120  129 1   
   128  121  123 ar  
   129  121  130 1   
   130  122  124 ar  
   131  122  131 1   
   132  123  124 ar  
   133  123  132 1   
   134  124  133 1   
   135  134  135 1   
   136  134  140 1   
   137  135  136 1   
   138  135  138 1   
   139  135  141 1   
   140  136  137 2   
   141  136  148 1   
   142  138  139 1   
   143  138  142 1   
   144  138  143 1   
   145  139  140 1   
   146  139  144 1   
   147  139  145 1   
   148  140  146 1   
   149  140  147 1   
   150  148  149 1   
   151  148  157 1   
   152  149  150 1   
   153  149  152 1   
   154  149  158 1   
   155  150  151 2   
   156  150  163 1   
   157  152  153 1   
   158  152  159 1   
   159  152  160 1   
   160  153  154 1   
   161  153  161 1   
   162  153  162 1   
   163  154  155 1   
   164  154  156 1   
   165  163  164 1   
   166  163  168 1   
   167  164  165 1   
   168  164  166 1   
   169  164  167 1   
   170  170  171 1   
   171  170  172 1   
   172  173  174 1   
   173  173  175 1   
   174  176  177 1   
   175  176  178 1   
   176  179  180 1   
   177  179  181 1   
@<TRIPOS>SUBSTRUCTURE
     1 MOL         1 TEMP              0 ****  ****    0 ROOT
