@<TRIPOS>MOLECULE
MOL
  181   177     1     0     0
SMALL
resp


@<TRIPOS>ATOM
      1 C1          0.8170    6.6020   -2.8190 c3        1 MOL     -0.391600
      2 C2          2.0660    6.5060   -1.9190 c         1 MOL      0.722422
      3 O1          1.9670    6.8670   -0.7760 o         1 MOL     -0.573949
      4 H1          0.0860    7.2650   -2.3560 hc        1 MOL      0.090685
      5 H2          1.1010    6.9990   -3.7940 hc        1 MOL      0.090685
      6 H3          0.3810    5.6100   -2.9430 hc        1 MOL      0.090685
      7 N1          3.2310    6.0220   -2.4230 n         1 MOL     -0.595752
      8 C3          4.3570    5.6290   -1.5930 c3        1 MOL      0.108361
      9 C4          4.0040    4.6480   -0.5050 c         1 MOL      0.574836
     10 O2          3.6860    3.4870   -0.7910 o         1 MOL     -0.553350
     11 C5          5.5220    5.2000   -2.4330 c3        1 MOL     -0.097459
     12 C6          6.7490    5.0660   -1.5660 c         1 MOL      0.673143
     13 O3          7.2200    6.1020   -1.1110 o         1 MOL     -0.716534
     14 O4          7.2490    3.9210   -1.4700 o         1 MOL     -0.716534
     15 H4          3.2310    5.7560   -3.3940 hn        1 MOL      0.296483
     16 H5          4.6830    6.5290   -1.0710 h1        1 MOL      0.015417
     17 H6          5.7010    5.9690   -3.1770 hc        1 MOL      0.003082
     18 H7          5.2730    4.2710   -2.9480 hc        1 MOL      0.003082
     19 N2          4.3580    4.9670    0.7780 n         1 MOL     -0.552433
     20 C7          4.4760    4.0000    1.9200 c3        1 MOL      0.337702
     21 C8          3.1770    3.4060    2.4290 c         1 MOL      0.453820
     22 O5          2.1130    3.9780    2.1550 o         1 MOL     -0.538160
     23 C9          5.3260    4.7100    2.9580 c3        1 MOL     -0.348792
     24 H8          4.6560    5.9220    0.8990 hn        1 MOL      0.304602
     25 H9          5.0720    3.2250    1.4590 h1        1 MOL      0.083282
     26 H10         5.7900    4.0450    3.6850 hc        1 MOL      0.088269
     27 H11         6.1830    5.2080    2.5050 hc        1 MOL      0.088269
     28 H12         4.7530    5.5120    3.4080 hc        1 MOL      0.088269
     29 N3          3.1790    2.2870    3.1770 n         1 MOL     -0.545917
     30 C10         4.3060    1.3570    3.5970 c3        1 MOL      0.140735
     31 C11         4.5680    0.3460    2.5060 c         1 MOL      0.292858
     32 O6          3.7640    0.2340    1.5980 o         1 MOL     -0.370744
     33 C12         3.8620    0.6950    4.8890 c3        1 MOL     -0.236375
     34 C13         2.4080    0.1410    4.8680 c         1 MOL      0.680620
     35 O7          1.7360   -0.0330    3.7990 o         1 MOL     -0.662455
     36 O8          1.9430   -0.1570    5.9800 o         1 MOL     -0.662455
     37 H13         2.2690    2.0500    3.5400 hn        1 MOL      0.338889
     38 H14         5.1710    2.0030    3.7020 h1        1 MOL      0.037078
     39 H15         3.9970    1.4020    5.7150 hc        1 MOL      0.054018
     40 H16         4.5660   -0.1140    5.1120 hc        1 MOL      0.054018
     41 N4          5.6780   -0.3840    2.5570 n         1 MOL     -0.366112
     42 C14         6.0850   -1.3360    1.4630 c3        1 MOL      0.176822
     43 C15         7.2900   -0.9070    0.7170 c         1 MOL      0.562369
     44 O9          8.0650   -0.0230    1.0550 o         1 MOL     -0.521883
     45 H17         6.2930   -0.2030    3.3320 hn        1 MOL      0.248143
     46 H18         5.2870   -1.6140    0.7780 h1        1 MOL      0.002500
     47 H19         6.3250   -2.2520    2.0030 h1        1 MOL      0.002500
     48 N5          7.7380   -1.6210   -0.3710 n         1 MOL     -0.440832
     49 C16         7.2420   -2.9450   -0.8420 c3        1 MOL     -0.072883
     50 C17         6.0500   -2.7630   -1.7250 c         1 MOL      0.569632
     51 O10         5.7640   -1.6260   -2.1380 o         1 MOL     -0.427431
     52 C18         8.3990   -3.6580   -1.5970 c3        1 MOL     -0.168529
     53 C19         8.9260   -2.7790   -2.7480 c         1 MOL      0.562443
     54 N6          8.9800   -3.3260   -3.9140 n         1 MOL     -0.693991
     55 O11         9.4950   -1.6690   -2.5310 o         1 MOL     -0.484514
     56 H20         8.6400   -1.3610   -0.7400 hn        1 MOL      0.292583
     57 H21         7.0310   -3.5520    0.0400 h1        1 MOL      0.059482
     58 H22         8.0540   -4.6010   -2.0030 hc        1 MOL      0.060096
     59 H23         9.2160   -3.9910   -0.9420 hc        1 MOL      0.060096
     60 H24         8.5380   -4.2230   -4.0810 hn        1 MOL      0.353425
     61 H25         9.4590   -2.7910   -4.6250 hn        1 MOL      0.353425
     62 N7          5.3480   -3.8650   -2.0900 n         1 MOL     -0.488328
     63 C20         4.2210   -3.9530   -3.1400 c3        1 MOL     -0.219323
     64 C21         2.7770   -4.1350   -2.6500 c         1 MOL      0.610334
     65 O12         1.8220   -3.9210   -3.3700 o         1 MOL     -0.562577
     66 H26         5.6270   -4.7640   -1.7240 hn        1 MOL      0.314801
     67 H27         4.4960   -4.8670   -3.6690 h1        1 MOL      0.139413
     68 H28         4.1740   -3.0550   -3.7500 h1        1 MOL      0.139413
     69 N8          2.4630   -4.5720   -1.3700 n         1 MOL     -0.391286
     70 C22         1.1950   -5.0470   -0.8720 c3        1 MOL      0.004791
     71 C23         0.1230   -3.9530   -0.6170 c         1 MOL      0.512635
     72 O13         0.3760   -3.0610    0.1780 o         1 MOL     -0.571113
     73 C24         1.2910   -5.9660    0.4140 c3        1 MOL      0.290759
     74 C25        -0.0130   -6.6230    0.9110 c3        1 MOL     -0.218905
     75 O14         2.2330   -6.9840    0.0580 oh        1 MOL     -0.626527
     76 H29         3.2450   -4.7620   -0.7700 hn        1 MOL      0.172723
     77 H30         0.8320   -5.6950   -1.6620 h1        1 MOL      0.099989
     78 H31         1.6500   -5.4380    1.2940 h1        1 MOL      0.004634
     79 H32         2.5610   -7.3050    0.9030 ho        1 MOL      0.382498
     80 H33         0.1350   -7.5530    1.4530 hc        1 MOL      0.070245
     81 H34        -0.4880   -5.8720    1.5460 hc        1 MOL      0.070245
     82 H35        -0.7240   -6.8860    0.1170 hc        1 MOL      0.070245
     83 N9         -1.0690   -4.1170   -1.2570 n         1 MOL     -0.252604
     84 C26        -2.3230   -3.3330   -1.1260 c3        1 MOL     -0.402117
     85 C27        -2.8710   -3.5110    0.2680 c         1 MOL      0.614676
     86 O15        -3.0770   -4.6490    0.6700 o         1 MOL     -0.596616
     87 C28        -3.2150   -3.7480   -2.2450 c3        1 MOL      0.491279
     88 C29        -4.5390   -2.9580   -2.1170 c3        1 MOL     -0.096541
     89 C30        -2.6770   -3.6010   -3.7050 c3        1 MOL     -0.437389
     90 C31        -5.6870   -3.3770   -3.1070 c3        1 MOL     -0.321150
     91 H36        -1.0180   -4.8960   -1.9080 hn        1 MOL      0.184211
     92 H37        -2.0560   -2.2840   -1.2690 h1        1 MOL      0.209035
     93 H38        -3.5110   -4.7880   -2.1090 hc        1 MOL     -0.040755
     94 H39        -4.3300   -1.8960   -2.2700 hc        1 MOL      0.042818
     95 H40        -4.9290   -3.0130   -1.0970 hc        1 MOL      0.042818
     96 H41        -2.6630   -2.5840   -4.0760 hc        1 MOL      0.100515
     97 H42        -1.6590   -3.9690   -3.8020 hc        1 MOL      0.100515
     98 H43        -3.3440   -4.2080   -4.3370 hc        1 MOL      0.100515
     99 H44        -5.3710   -3.6010   -4.1230 hc        1 MOL      0.072931
    100 H45        -5.9060   -4.4320   -2.9330 hc        1 MOL      0.072931
    101 H46        -6.5220   -2.6700   -3.0680 hc        1 MOL      0.072931
    102 N10        -3.2270   -2.4080    0.9280 n         1 MOL     -0.093705
    103 C32        -3.8540   -2.3620    2.2770 c3        1 MOL      0.046801
    104 C33        -5.1830   -1.6970    2.2750 c         1 MOL      0.517266
    105 O16        -5.9460   -1.9270    3.2060 o         1 MOL     -0.554870
    106 C34        -2.8100   -1.6810    3.2030 c3        1 MOL     -0.210106
    107 C35        -1.4760   -2.4240    3.3780 c         1 MOL      0.810798
    108 O17        -1.5670   -3.5810    3.8840 o         1 MOL     -0.728795
    109 O18        -0.4080   -1.9440    3.1180 o         1 MOL     -0.728795
    110 H47        -3.0500   -1.5320    0.4620 hn        1 MOL     -0.182662
    111 H48        -4.0870   -3.3490    2.6820 h1        1 MOL      0.084813
    112 H49        -3.2100   -1.4030    4.1760 hc        1 MOL      0.038223
    113 H50        -2.5580   -0.7270    2.7470 hc        1 MOL      0.038223
    114 N11        -5.4280   -0.8320    1.3040 n         1 MOL     -0.567103
    115 C36        -6.5900    0.0600    1.1420 c3        1 MOL      0.476037
    116 C37        -6.2150    1.4150    0.5220 c         1 MOL      0.128465
    117 O19        -6.7920    1.7780   -0.5090 o         1 MOL     -0.446723
    118 C38        -7.6110   -0.7800    0.3120 c3        1 MOL     -0.435257
    119 C39        -9.0060   -0.2560    0.1820 ca        1 MOL      0.236124
    120 C40        -9.6560   -0.5850   -1.0180 ca        1 MOL     -0.185713
    121 C41        -9.7740    0.3320    1.2170 ca        1 MOL     -0.185713
    122 C42       -11.0640   -0.4550   -1.1920 ca        1 MOL     -0.150919
    123 C43       -11.1580    0.5930    0.9830 ca        1 MOL     -0.150919
    124 C44       -11.8010    0.2330   -0.1910 ca        1 MOL     -0.096926
    125 H51        -4.6460   -0.5600    0.7310 hn        1 MOL      0.354961
    126 H52        -7.0150    0.2750    2.1160 h1        1 MOL     -0.014722
    127 H53        -7.8040   -1.6720    0.9110 hc        1 MOL      0.143792
    128 H54        -7.1840   -0.9940   -0.6770 hc        1 MOL      0.143792
    129 H55        -9.0350   -1.0020   -1.7990 ha        1 MOL      0.122633
    130 H56        -9.2460    0.5150    2.1370 ha        1 MOL      0.122633
    131 H57       -11.5850   -0.7630   -2.0710 ha        1 MOL      0.111583
    132 H58       -11.7350    1.0560    1.7760 ha        1 MOL      0.111583
    133 H59       -12.8740    0.3470   -0.2430 ha        1 MOL      0.092404
    134 N12        -5.2700    2.2000    1.1390 n         1 MOL      0.098867
    135 C45        -4.9210    3.5470    0.6450 c3        1 MOL     -0.032340
    136 C46        -4.5470    3.6400   -0.8420 c         1 MOL      0.259072
    137 O20        -4.9910    4.5560   -1.5340 o         1 MOL     -0.464849
    138 C47        -3.7270    3.9470    1.4650 c3        1 MOL      0.126668
    139 C48        -4.0080    3.3570    2.8490 c3        1 MOL     -0.215216
    140 C49        -4.8020    2.0190    2.5040 c3        1 MOL     -0.023103
    141 H60        -5.7830    4.2140    0.7720 h1        1 MOL      0.043853
    142 H61        -2.8430    3.5700    0.9700 hc        1 MOL      0.008871
    143 H62        -3.6060    5.0280    1.5230 hc        1 MOL      0.008871
    144 H63        -3.0430    3.2660    3.3440 hc        1 MOL      0.070126
    145 H64        -4.7180    3.9310    3.4450 hc        1 MOL      0.070126
    146 H65        -4.1250    1.1600    2.5740 h1        1 MOL      0.037408
    147 H66        -5.6860    1.9790    3.1320 h1        1 MOL      0.037408
    148 N13        -3.9320    2.5780   -1.3870 n         1 MOL     -0.010500
    149 C50        -3.5970    2.5020   -2.7810 c3        1 MOL     -0.337153
    150 C51        -4.8880    2.5920   -3.6480 c         1 MOL      0.425573
    151 O21        -4.9190    3.3740   -4.6070 o         1 MOL     -0.536471
    152 C52        -2.7550    1.2100   -2.9770 c3        1 MOL      0.289103
    153 C53        -1.5290    0.7260   -2.1000 c3        1 MOL     -0.493302
    154 C54        -2.0300    0.1550   -0.7260 c         1 MOL      0.617506
    155 O22        -1.0780   -0.1710    0.0780 o         1 MOL     -0.592355
    156 O23        -3.2320    0.1230   -0.3970 o         1 MOL     -0.592355
    157 H67        -3.6950    1.7550   -0.8460 hn        1 MOL      0.179652
    158 H68        -3.0450    3.4090   -3.0340 h1        1 MOL      0.146729
    159 H69        -2.3720    1.3000   -3.9880 hc        1 MOL     -0.044139
    160 H70        -3.4750    0.3940   -3.0730 hc        1 MOL     -0.044139
    161 H71        -0.9500    1.6200   -1.8560 hc        1 MOL      0.159884
    162 H72        -0.9720   -0.0560   -2.6060 hc        1 MOL      0.159884
    163 N14        -6.0000    2.0120   -3.2490 n         1 MOL     -0.041488
    164 C55        -7.2390    1.9890   -3.9160 c3        1 MOL     -0.243494
    165 H73        -7.8850    2.7660   -3.5080 h1        1 MOL      0.084667
    166 H74        -7.0830    2.1680   -4.9800 h1        1 MOL      0.084667
    167 H75        -7.7090    1.0160   -3.7760 h1        1 MOL      0.084667
    168 H76        -5.9860    1.4140   -2.4340 hn        1 MOL      0.176124
    169 Ca1         0.9990   -0.6430    1.4150 Ca        1 MOL      1.714272
    170 O24        -0.6110    1.1840    2.3360 oh        1 MOL     -0.833798
    171 H77        -1.0480    0.9490    3.1560 ho        1 MOL      0.404511
    172 H78        -1.2940    1.0790    1.6690 ho        1 MOL      0.404511
    173 O25         2.4470   -2.7720    2.2590 oh        1 MOL     -0.833798
    174 H79         1.8360   -3.3330    2.7200 ho        1 MOL      0.404511
    175 H80         3.1420   -3.3610    1.9660 ho        1 MOL      0.404511
    176 O26         1.3700    1.8120    0.3010 oh        1 MOL     -0.833798
    177 H81         1.9320    2.1670   -0.3760 ho        1 MOL      0.404511
    178 H82         1.2260    2.5450    0.9020 ho        1 MOL      0.404511
    179 O27         2.5450   -1.0720   -1.0180 oh        1 MOL     -0.833798
    180 H83         2.0200   -1.6300   -1.6030 ho        1 MOL      0.404511
    181 H84         3.4390   -1.1320   -1.3750 ho        1 MOL      0.404511
@<TRIPOS>BOND
     1    1    2 1   
     2    1    4 1   
     3    1    5 1   
     4    1    6 1   
     5    2    3 2   
     6    2    7 1   
     7    7    8 1   
     8    7   15 1   
     9    8    9 1   
    10    8   11 1   
    11    8   16 1   
    12    9   10 2   
    13    9   19 1   
    14   11   12 1   
    15   11   17 1   
    16   11   18 1   
    17   12   13 1   
    18   12   14 1   
    19   19   20 1   
    20   19   24 1   
    21   20   21 1   
    22   20   23 1   
    23   20   25 1   
    24   21   22 2   
    25   21   29 1   
    26   23   26 1   
    27   23   27 1   
    28   23   28 1   
    29   29   30 1   
    30   29   37 1   
    31   30   31 1   
    32   30   33 1   
    33   30   38 1   
    34   31   32 2   
    35   31   41 1   
    36   33   34 1   
    37   33   39 1   
    38   33   40 1   
    39   34   35 1   
    40   34   36 1   
    41   41   42 1   
    42   41   45 1   
    43   42   43 1   
    44   42   46 1   
    45   42   47 1   
    46   43   44 2   
    47   43   48 1   
    48   48   49 1   
    49   48   56 1   
    50   49   50 1   
    51   49   52 1   
    52   49   57 1   
    53   50   51 2   
    54   50   62 1   
    55   52   53 1   
    56   52   58 1   
    57   52   59 1   
    58   53   54 1   
    59   53   55 2   
    60   54   60 1   
    61   54   61 1   
    62   62   63 1   
    63   62   66 1   
    64   63   64 1   
    65   63   67 1   
    66   63   68 1   
    67   64   65 2   
    68   64   69 1   
    69   69   70 1   
    70   69   76 1   
    71   70   71 1   
    72   70   73 1   
    73   70   77 1   
    74   71   72 2   
    75   71   83 1   
    76   73   74 1   
    77   73   75 1   
    78   73   78 1   
    79   74   80 1   
    80   74   81 1   
    81   74   82 1   
    82   75   79 1   
    83   83   84 1   
    84   83   91 1   
    85   84   85 1   
    86   84   87 1   
    87   84   92 1   
    88   85   86 2   
    89   85  102 1   
    90   87   88 1   
    91   87   89 1   
    92   87   93 1   
    93   88   90 1   
    94   88   94 1   
    95   88   95 1   
    96   89   96 1   
    97   89   97 1   
    98   89   98 1   
    99   90   99 1   
   100   90  100 1   
   101   90  101 1   
   102  102  103 1   
   103  102  110 1   
   104  103  104 1   
   105  103  106 1   
   106  103  111 1   
   107  104  105 2   
   108  104  114 1   
   109  106  107 1   
   110  106  112 1   
   111  106  113 1   
   112  107  108 1   
   113  107  109 1   
   114  114  115 1   
   115  114  125 1   
   116  115  116 1   
   117  115  118 1   
   118  115  126 1   
   119  116  117 2   
   120  116  134 1   
   121  118  119 1   
   122  118  127 1   
   123  118  128 1   
   124  119  120 ar  
   125  119  121 ar  
   126  120  122 ar  
   127  120  129 1   
   128  121  123 ar  
   129  121  130 1   
   130  122  124 ar  
   131  122  131 1   
   132  123  124 ar  
   133  123  132 1   
   134  124  133 1   
   135  134  135 1   
   136  134  140 1   
   137  135  136 1   
   138  135  138 1   
   139  135  141 1   
   140  136  137 2   
   141  136  148 1   
   142  138  139 1   
   143  138  142 1   
   144  138  143 1   
   145  139  140 1   
   146  139  144 1   
   147  139  145 1   
   148  140  146 1   
   149  140  147 1   
   150  148  149 1   
   151  148  157 1   
   152  149  150 1   
   153  149  152 1   
   154  149  158 1   
   155  150  151 2   
   156  150  163 1   
   157  152  153 1   
   158  152  159 1   
   159  152  160 1   
   160  153  154 1   
   161  153  161 1   
   162  153  162 1   
   163  154  155 1   
   164  154  156 1   
   165  163  164 1   
   166  163  168 1   
   167  164  165 1   
   168  164  166 1   
   169  164  167 1   
   170  170  171 1   
   171  170  172 1   
   172  173  174 1   
   173  173  175 1   
   174  176  177 1   
   175  176  178 1   
   176  179  180 1   
   177  179  181 1   
@<TRIPOS>SUBSTRUCTURE
     1 MOL         1 TEMP              0 ****  ****    0 ROOT
