@<TRIPOS>MOLECULE
MOL
  191   184     1     0     0
SMALL
resp


@<TRIPOS>ATOM
      1 C1          1.2770    1.9050    2.5510 c3        1 MOL     -0.254372
      2 C2          2.5890    2.0620    1.7490 c         1 MOL      0.673332
      3 O1          2.7030    2.7980    0.7760 o         1 MOL     -0.582978
      4 H1          1.4340    2.2480    3.5740 hc        1 MOL      0.058456
      5 H2          0.4920    2.5020    2.0860 hc        1 MOL      0.058456
      6 H3          0.9800    0.8560    2.5610 hc        1 MOL      0.058456
      7 N1          3.5630    1.3310    2.1810 n         1 MOL     -0.495220
      8 C3          4.8970    1.1750    1.4910 c3        1 MOL      0.147744
      9 C4          5.3280   -0.3090    1.2670 c         1 MOL      0.457281
     10 O2          6.2640   -0.5810    0.5300 o         1 MOL     -0.374144
     11 C5          5.9640    2.0470    2.2980 c3        1 MOL     -0.361661
     12 C6          6.0290    1.6840    3.8010 c         1 MOL      0.762998
     13 O3          5.2770    0.8390    4.3920 o         1 MOL     -0.717692
     14 O4          6.8460    2.3620    4.4720 o         1 MOL     -0.717692
     15 H4          3.4110    0.8460    3.0490 hn        1 MOL      0.253759
     16 H5          4.9070    1.6000    0.4830 h1        1 MOL      0.033093
     17 H6          5.6290    3.0770    2.3620 hc        1 MOL      0.115099
     18 H7          6.9330    1.7840    1.8780 hc        1 MOL      0.115099
     19 N2          4.5190   -1.3010    1.8100 n         1 MOL     -0.498430
     20 C7          4.8670   -2.7120    1.6400 c3        1 MOL      0.424567
     21 C8          5.3280   -3.1360    0.1940 c         1 MOL      0.202873
     22 O5          5.9870   -4.1400    0.0570 o         1 MOL     -0.519648
     23 C9          5.8810   -3.1740    2.6850 c3        1 MOL     -0.287275
     24 C10         5.2180   -3.2630    4.0770 c3        1 MOL     -0.065867
     25 C11         6.3590   -3.4330    5.1560 c3        1 MOL      0.068845
     26 C12         5.9980   -3.0990    6.6230 c3        1 MOL      0.019664
     27 N3          7.2340   -2.9680    7.4350 n4        1 MOL     -0.159727
     28 H8          3.7200   -1.0160    2.3580 hn        1 MOL      0.281043
     29 H9          3.9280   -3.2670    1.7060 h1        1 MOL     -0.031764
     30 H10         6.6590   -2.4090    2.6940 hc        1 MOL      0.088621
     31 H11         6.1660   -4.2030    2.5030 hc        1 MOL      0.088621
     32 H12         4.5710   -4.1360    4.0930 hc        1 MOL      0.044539
     33 H13         4.8010   -2.2640    4.2290 hc        1 MOL      0.044539
     34 H14         7.2520   -2.8440    4.9430 hc        1 MOL      0.003548
     35 H15         6.6560   -4.4810    5.1610 hc        1 MOL      0.003548
     36 H16         5.4070   -3.9020    7.0440 hx        1 MOL      0.060771
     37 H17         5.4440   -2.1570    6.6040 hx        1 MOL      0.060771
     38 H18         8.0110   -3.5020    7.0630 hn        1 MOL      0.274332
     39 H19         7.5410   -2.0090    7.4850 hn        1 MOL      0.274332
     40 H20         7.0860   -3.3280    8.3650 hn        1 MOL      0.274332
     41 N4          4.8300   -2.5050   -0.8950 n         1 MOL     -0.008899
     42 C13         5.0710   -2.6510   -2.3600 c3        1 MOL      0.248041
     43 C14         5.2220   -1.2710   -3.0320 c         1 MOL      0.356762
     44 O6          5.0520   -1.0620   -4.2440 o         1 MOL     -0.533910
     45 C15         3.8900   -3.5350   -2.9780 c3        1 MOL     -0.345832
     46 C16         2.4470   -3.0340   -2.7420 c         1 MOL      0.714664
     47 O7          1.5730   -3.9050   -2.6200 o         1 MOL     -0.676879
     48 O8          2.2950   -1.8240   -2.5230 o         1 MOL     -0.676879
     49 H21         4.0130   -1.9560   -0.6800 hn        1 MOL      0.098420
     50 H22         6.0260   -3.1690   -2.4510 h1        1 MOL      0.013542
     51 H23         4.0460   -4.5200   -2.5390 hc        1 MOL      0.040376
     52 H24         4.0620   -3.5910   -4.0580 hc        1 MOL      0.040376
     53 N5          5.5110   -0.2710   -2.2090 n         1 MOL     -0.110889
     54 C17         5.6820    1.1170   -2.6640 c3        1 MOL     -0.064739
     55 C18         6.6700    1.8280   -1.7820 c         1 MOL      0.449022
     56 O9          7.5910    1.1710   -1.3130 o         1 MOL     -0.517502
     57 H25         5.8090   -0.5390   -1.2790 hn        1 MOL      0.010427
     58 H26         4.7330    1.6460   -2.7740 h1        1 MOL      0.104690
     59 H27         6.2290    1.1180   -3.6140 h1        1 MOL      0.104690
     60 N6          6.5520    3.1440   -1.6010 n         1 MOL     -0.397441
     61 C19         5.4100    4.0630   -1.9430 c3        1 MOL      0.306325
     62 C20         5.0790    5.0410   -0.7730 c         1 MOL      0.445928
     63 O10         5.9490    5.4180   -0.0050 o         1 MOL     -0.534860
     64 C21         5.7220    4.9530   -3.1910 c3        1 MOL     -0.503716
     65 C22         6.4080    4.1630   -4.1460 c         1 MOL      0.763314
     66 N7          7.6730    4.4770   -4.3260 n         1 MOL     -0.791993
     67 O11         5.7560    3.4280   -4.8940 o         1 MOL     -0.590759
     68 H28         7.3230    3.5130   -1.0720 hn        1 MOL      0.261406
     69 H29         4.5180    3.4320   -2.0080 h1        1 MOL      0.015722
     70 H30         6.3400    5.7780   -2.8390 hc        1 MOL      0.129761
     71 H31         4.7810    5.3290   -3.5770 hc        1 MOL      0.129761
     72 H32         8.0130    5.2790   -3.8190 hn        1 MOL      0.364967
     73 H33         8.0680    4.1750   -5.1990 hn        1 MOL      0.364967
     74 N8          3.8230    5.5800   -0.6710 n         1 MOL     -0.327612
     75 C23         2.5710    5.3030   -1.4400 c3        1 MOL     -0.300681
     76 C24         1.2580    5.8290   -0.8330 c         1 MOL      0.775919
     77 O12         1.2050    6.9280   -0.2770 o         1 MOL     -0.554096
     78 H34         3.7690    6.2340    0.0960 hn        1 MOL      0.274859
     79 H35         2.4550    4.2170   -1.3670 h1        1 MOL      0.134772
     80 H36         2.7760    5.6530   -2.4550 h1        1 MOL      0.134772
     81 N9          0.1670    5.0850   -1.0200 n         1 MOL     -0.690325
     82 C25        -1.1980    5.4750   -0.4690 c3        1 MOL      0.245087
     83 C26        -1.9870    4.2670    0.1290 c         1 MOL      0.645651
     84 O13        -1.5650    3.1260    0.0870 o         1 MOL     -0.541493
     85 C27        -1.9400    6.2220   -1.5850 c3        1 MOL     -0.217849
     86 C28        -3.1600    7.0040   -1.0930 ca        1 MOL      0.027827
     87 C29        -4.4640    6.8290   -1.5920 ca        1 MOL     -0.116315
     88 C30        -3.0070    7.8930   -0.0030 ca        1 MOL     -0.116315
     89 C31        -5.5650    7.4600   -0.9720 ca        1 MOL     -0.270987
     90 C32        -4.0730    8.4590    0.6750 ca        1 MOL     -0.270987
     91 C33        -5.3720    8.2720    0.1880 ca        1 MOL      0.339191
     92 O14        -6.4920    8.9340    0.8010 oh        1 MOL     -0.533838
     93 H37         0.1640    4.1080   -1.2960 hn        1 MOL      0.332621
     94 H38        -1.0580    6.2030    0.3210 h1        1 MOL      0.005434
     95 H39        -2.1780    5.5670   -2.4200 hc        1 MOL      0.097520
     96 H40        -1.2850    7.0280   -1.9140 hc        1 MOL      0.097520
     97 H41        -4.7300    6.1820   -2.4180 ha        1 MOL      0.138353
     98 H42        -2.0320    8.2190    0.3130 ha        1 MOL      0.138353
     99 H43        -6.5420    7.4010   -1.4410 ha        1 MOL      0.157937
    100 H44        -3.9060    8.9710    1.6140 ha        1 MOL      0.157937
    101 H45        -6.2750    9.4430    1.5840 ho        1 MOL      0.382468
    102 N10        -3.0240    4.5380    0.8440 n         1 MOL     -0.520277
    103 C34        -4.0060    3.5770    1.4340 c3        1 MOL      0.036457
    104 C35        -5.0060    3.0220    0.3930 c         1 MOL      0.572163
    105 O15        -5.1510    3.7320   -0.5870 o         1 MOL     -0.502512
    106 C36        -4.7390    4.1530    2.5910 c3        1 MOL      0.137802
    107 C37        -5.6850    5.2880    2.2550 c3        1 MOL      0.173930
    108 C38        -5.4710    3.1660    3.4960 c3        1 MOL     -0.279500
    109 C39        -5.9400    6.2230    3.4720 c3        1 MOL     -0.287347
    110 H46        -3.3040    5.5090    0.9080 hn        1 MOL      0.228119
    111 H47        -3.4340    2.7220    1.7820 h1        1 MOL      0.082418
    112 H48        -3.9410    4.5970    3.1780 hc        1 MOL      0.015687
    113 H49        -6.6610    4.8960    2.0000 hc        1 MOL     -0.019767
    114 H50        -5.2500    5.9490    1.5040 hc        1 MOL     -0.019767
    115 H51        -5.8430    3.5630    4.4390 hc        1 MOL      0.074641
    116 H52        -6.3400    2.7630    2.9780 hc        1 MOL      0.074641
    117 H53        -4.7660    2.3990    3.8130 hc        1 MOL      0.074641
    118 H54        -6.2320    7.2010    3.0730 hc        1 MOL      0.057561
    119 H55        -6.7050    5.7200    4.0620 hc        1 MOL      0.057561
    120 H56        -5.0180    6.3300    4.0430 hc        1 MOL      0.057561
    121 N11        -5.7050    1.8300    0.4690 n         1 MOL     -0.612233
    122 C40        -6.5410    1.1490   -0.5670 c3        1 MOL      0.170105
    123 C41        -5.7710   -0.0540   -1.1930 c         1 MOL      0.714285
    124 O16        -5.0040   -0.7030   -0.5430 o         1 MOL     -0.461982
    125 C42        -7.8550    0.6420    0.0100 c3        1 MOL     -0.017691
    126 O17        -7.6930   -0.5110    0.9130 oh        1 MOL     -0.507268
    127 H57        -5.6970    1.3370    1.3540 hn        1 MOL      0.291702
    128 H58        -6.8000    1.7720   -1.4240 h1        1 MOL      0.039583
    129 H59        -8.5900    0.4400   -0.7670 h1        1 MOL      0.063144
    130 H60        -8.3510    1.4000    0.6300 h1        1 MOL      0.063144
    131 H61        -8.5860   -0.8440    1.0760 ho        1 MOL      0.381465
    132 N12        -6.0610   -0.3530   -2.4830 n         1 MOL     -0.661383
    133 C43        -5.4050   -1.4630   -3.2520 c3        1 MOL      0.194940
    134 C44        -5.4830   -2.8900   -2.5910 c         1 MOL      0.532586
    135 O18        -4.5080   -3.7360   -2.5260 o         1 MOL     -0.546703
    136 C45        -3.9420   -1.0650   -3.5210 c3        1 MOL     -0.252475
    137 H62        -6.7170    0.1800   -3.0520 hn        1 MOL      0.327998
    138 H63        -5.8070   -1.5820   -4.2620 h1        1 MOL      0.054107
    139 H64        -3.8910   -0.0810   -3.9850 hc        1 MOL      0.087865
    140 H65        -3.3690   -1.0330   -2.6000 hc        1 MOL      0.087865
    141 H66        -3.4950   -1.8200   -4.1780 hc        1 MOL      0.087865
    142 N13        -6.6620   -3.1570   -1.9580 n         1 MOL     -0.606161
    143 C46        -7.0070   -4.3370   -1.1280 c3        1 MOL      0.355908
    144 C47        -5.9770   -4.6460    0.0020 c         1 MOL      0.230616
    145 O19        -5.9180   -5.7600    0.4870 o         1 MOL     -0.486180
    146 C48        -7.2240   -5.5960   -2.0550 c3        1 MOL     -0.257251
    147 H67        -7.3590   -2.4470   -2.1050 hn        1 MOL      0.276436
    148 H68        -7.9330   -4.1760   -0.5820 h1        1 MOL      0.041847
    149 H69        -6.2130   -5.9020   -2.3430 hc        1 MOL      0.070625
    150 H70        -7.8060   -6.3400   -1.5200 hc        1 MOL      0.070625
    151 H71        -7.8220   -5.3510   -2.9350 hc        1 MOL      0.070625
    152 N14        -5.2240   -3.6720    0.5120 n         1 MOL     -0.093260
    153 C49        -4.2000   -3.9490    1.5270 c3        1 MOL     -0.180310
    154 C50        -4.8060   -3.8610    2.9700 c         1 MOL      0.520306
    155 O20        -4.3340   -4.5280    3.9150 o         1 MOL     -0.505425
    156 C51        -3.0300   -3.0220    1.2180 c3        1 MOL      0.071990
    157 C52        -1.7680   -3.2950    1.9630 c3        1 MOL     -0.520553
    158 C53        -1.0010   -4.4850    1.4050 c         1 MOL      0.855233
    159 O21        -0.4830   -4.3790    0.3030 o         1 MOL     -0.743576
    160 O22        -0.7900   -5.4880    2.2260 o         1 MOL     -0.743576
    161 H72        -5.3360   -2.7500    0.1130 hn        1 MOL      0.061224
    162 H73        -3.8630   -4.9830    1.3960 h1        1 MOL      0.169264
    163 H74        -3.3090   -1.9740    1.3260 hc        1 MOL      0.044807
    164 H75        -2.8960   -3.1700    0.1410 hc        1 MOL      0.044807
    165 H76        -2.1010   -3.3890    2.9950 hc        1 MOL      0.135837
    166 H77        -1.1250   -2.4350    1.7830 hc        1 MOL      0.135837
    167 N15        -5.8910   -3.0520    3.1280 n         1 MOL     -0.271465
    168 C54        -6.8730   -3.0840    4.2720 c3        1 MOL     -0.178694
    169 H78        -6.3290   -3.1390    5.2150 h1        1 MOL      0.094172
    170 H79        -7.4810   -2.1800    4.2560 h1        1 MOL      0.094172
    171 H80        -7.5170   -3.9580    4.1740 h1        1 MOL      0.094172
    172 H81        -6.0840   -2.4740    2.3360 hn        1 MOL      0.176134
    173 Ca1         0.0480   -5.8270   -1.7270 Ca        1 MOL      1.756314
    174 O23         2.1630   -5.9570    0.3090 oh        1 MOL     -0.854615
    175 H82         1.9370   -5.8570    1.2390 ho        1 MOL      0.421285
    176 H83         3.0820   -6.2350    0.3180 ho        1 MOL      0.421285
    177 O24         2.1950   -6.8560   -2.7060 oh        1 MOL     -0.854615
    178 H84         3.0450   -6.3970   -2.7400 ho        1 MOL      0.421285
    179 H85         2.3430   -7.6670   -3.1900 ho        1 MOL      0.421285
    180 O25        -2.6980   -5.9340   -1.2970 oh        1 MOL     -0.854615
    181 O26        -1.2280   -3.7800   -3.0050 oh        1 MOL     -0.854615
    182 H86        -3.0550   -6.7770   -1.0170 ho        1 MOL      0.421285
    183 H87        -2.1140   -3.4800   -2.8210 ho        1 MOL      0.421285
    184 H88        -3.4450   -5.4650   -1.6590 ho        1 MOL      0.421285
    185 H89        -0.9420   -3.2630   -3.7610 ho        1 MOL      0.421285
    186 O27        -0.5400   -7.0950   -3.8410 oh        1 MOL     -0.854615
    187 H90        -1.2370   -6.8800   -4.4570 ho        1 MOL      0.421285
    188 H91        -0.5840   -8.0410   -3.7460 ho        1 MOL      0.421285
    189 O28        -0.8190   -8.2830   -0.8370 oh        1 MOL     -0.854615
    190 H92        -1.6270   -8.5880   -0.4300 ho        1 MOL      0.421285
    191 H93        -0.7310   -8.8030   -1.6390 ho        1 MOL      0.421285
@<TRIPOS>BOND
     1    1    2 1   
     2    1    4 1   
     3    1    5 1   
     4    1    6 1   
     5    2    3 2   
     6    2    7 1   
     7    7    8 1   
     8    7   15 1   
     9    8    9 1   
    10    8   11 1   
    11    8   16 1   
    12    9   10 2   
    13    9   19 1   
    14   11   12 1   
    15   11   17 1   
    16   11   18 1   
    17   12   13 1   
    18   12   14 1   
    19   19   20 1   
    20   19   28 1   
    21   20   21 1   
    22   20   23 1   
    23   20   29 1   
    24   21   22 2   
    25   21   41 1   
    26   23   24 1   
    27   23   30 1   
    28   23   31 1   
    29   24   25 1   
    30   24   32 1   
    31   24   33 1   
    32   25   26 1   
    33   25   34 1   
    34   25   35 1   
    35   26   27 1   
    36   26   36 1   
    37   26   37 1   
    38   27   38 1   
    39   27   39 1   
    40   27   40 1   
    41   41   42 1   
    42   41   49 1   
    43   42   43 1   
    44   42   45 1   
    45   42   50 1   
    46   43   44 2   
    47   43   53 1   
    48   45   46 1   
    49   45   51 1   
    50   45   52 1   
    51   46   47 1   
    52   46   48 1   
    53   53   54 1   
    54   53   57 1   
    55   54   55 1   
    56   54   58 1   
    57   54   59 1   
    58   55   56 2   
    59   55   60 1   
    60   60   61 1   
    61   60   68 1   
    62   61   62 1   
    63   61   64 1   
    64   61   69 1   
    65   62   63 2   
    66   62   74 1   
    67   64   65 1   
    68   64   70 1   
    69   64   71 1   
    70   65   66 1   
    71   65   67 2   
    72   66   72 1   
    73   66   73 1   
    74   74   75 1   
    75   74   78 1   
    76   75   76 1   
    77   75   79 1   
    78   75   80 1   
    79   76   77 2   
    80   76   81 1   
    81   81   82 1   
    82   81   93 1   
    83   82   83 1   
    84   82   85 1   
    85   82   94 1   
    86   83   84 2   
    87   83  102 1   
    88   85   86 1   
    89   85   95 1   
    90   85   96 1   
    91   86   87 ar  
    92   86   88 ar  
    93   87   89 ar  
    94   87   97 1   
    95   88   90 ar  
    96   88   98 1   
    97   89   91 ar  
    98   89   99 1   
    99   90   91 ar  
   100   90  100 1   
   101   91   92 1   
   102   92  101 1   
   103  102  103 1   
   104  102  110 1   
   105  103  104 1   
   106  103  106 1   
   107  103  111 1   
   108  104  105 2   
   109  104  121 1   
   110  106  107 1   
   111  106  108 1   
   112  106  112 1   
   113  107  109 1   
   114  107  113 1   
   115  107  114 1   
   116  108  115 1   
   117  108  116 1   
   118  108  117 1   
   119  109  118 1   
   120  109  119 1   
   121  109  120 1   
   122  121  122 1   
   123  121  127 1   
   124  122  123 1   
   125  122  125 1   
   126  122  128 1   
   127  123  124 2   
   128  123  132 1   
   129  125  126 1   
   130  125  129 1   
   131  125  130 1   
   132  126  131 1   
   133  132  133 1   
   134  132  137 1   
   135  133  134 1   
   136  133  136 1   
   137  133  138 1   
   138  134  135 2   
   139  134  142 1   
   140  136  139 1   
   141  136  140 1   
   142  136  141 1   
   143  142  143 1   
   144  142  147 1   
   145  143  144 1   
   146  143  146 1   
   147  143  148 1   
   148  144  145 2   
   149  144  152 1   
   150  146  149 1   
   151  146  150 1   
   152  146  151 1   
   153  152  153 1   
   154  152  161 1   
   155  153  154 1   
   156  153  156 1   
   157  153  162 1   
   158  154  155 2   
   159  154  167 1   
   160  156  157 1   
   161  156  163 1   
   162  156  164 1   
   163  157  158 1   
   164  157  165 1   
   165  157  166 1   
   166  158  159 1   
   167  158  160 1   
   168  167  168 1   
   169  167  172 1   
   170  168  169 1   
   171  168  170 1   
   172  168  171 1   
   173  174  175 1   
   174  174  176 1   
   175  177  178 1   
   176  177  179 1   
   177  180  182 1   
   178  180  184 1   
   179  181  183 1   
   180  181  185 1   
   181  186  187 1   
   182  186  188 1   
   183  189  190 1   
   184  189  191 1   
@<TRIPOS>SUBSTRUCTURE
     1 MOL         1 TEMP              0 ****  ****    0 ROOT
