@<TRIPOS>MOLECULE
MOL
  184   179     1     0     0
SMALL
resp


@<TRIPOS>ATOM
      1 C1          2.3450   -5.5610    2.6390 c3        1 MOL     -0.432071
      2 C2          3.6980   -5.8250    2.0340 c         1 MOL      0.746277
      3 O1          3.7860   -6.6360    1.1350 o         1 MOL     -0.569588
      4 H1          1.7510   -6.4760    2.6130 hc        1 MOL      0.105429
      5 H2          2.4660   -5.2370    3.6730 hc        1 MOL      0.105429
      6 H3          1.8370   -4.7830    2.0700 hc        1 MOL      0.105429
      7 N1          4.7900   -5.2840    2.6610 n         1 MOL     -0.730363
      8 C3          6.1950   -5.3730    2.2380 c3        1 MOL      0.484644
      9 C4          6.4620   -4.5780    1.0090 c         1 MOL      0.417786
     10 O2          7.3890   -3.7300    1.0000 o         1 MOL     -0.472799
     11 C5          7.1360   -5.0400    3.3780 c3        1 MOL     -0.407200
     12 C6          8.6280   -5.4860    3.1610 c         1 MOL      0.715797
     13 O3          9.0170   -6.0980    2.1650 o         1 MOL     -0.717918
     14 O4          9.4280   -5.0400    3.9970 o         1 MOL     -0.717918
     15 H4          4.5240   -4.9240    3.5720 hn        1 MOL      0.323411
     16 H5          6.2880   -6.3900    1.8580 h1        1 MOL     -0.027625
     17 H6          6.7430   -5.6420    4.2030 hc        1 MOL      0.054782
     18 H7          6.9690   -3.9770    3.5760 hc        1 MOL      0.054782
     19 N2          5.6950   -4.7340   -0.0530 n         1 MOL     -0.554429
     20 C7          5.6870   -3.9540   -1.3350 c3        1 MOL      0.496200
     21 C8          4.2000   -3.9240   -1.7810 c         1 MOL      0.369851
     22 O5          3.4310   -4.8120   -1.5550 o         1 MOL     -0.511162
     23 C9          6.5660   -4.6610   -2.4010 c3        1 MOL     -0.154657
     24 H8          5.0510   -5.5070    0.0470 hn        1 MOL      0.257492
     25 H9          6.0100   -2.9580   -1.0710 h1        1 MOL     -0.054363
     26 H10         6.2150   -4.1640   -3.3020 hc        1 MOL      0.031180
     27 H11         7.6080   -4.3730   -2.2740 hc        1 MOL      0.031180
     28 H12         6.4720   -5.7270   -2.5900 hc        1 MOL      0.031180
     29 N3          3.8220   -2.9590   -2.5740 n         1 MOL     -0.372927
     30 C10         4.6690   -1.7870   -3.0650 c3        1 MOL     -0.025703
     31 C11         4.8930   -0.6380   -2.0490 c         1 MOL      0.644782
     32 O6          4.2470   -0.6400   -1.0370 o         1 MOL     -0.505991
     33 C12         3.9650   -1.2650   -4.3470 c3        1 MOL     -0.265322
     34 C13         2.4890   -0.9950   -4.2330 c         1 MOL      0.691172
     35 O7          1.6790   -1.6570   -4.8840 o         1 MOL     -0.675510
     36 O8          2.1570   -0.1260   -3.3850 o         1 MOL     -0.675510
     37 H13         2.8850   -3.0300   -2.9350 hn        1 MOL      0.313650
     38 H14         5.6170   -2.1350   -3.4820 h1        1 MOL      0.057037
     39 H15         4.0280   -1.9740   -5.1820 hc        1 MOL      0.064506
     40 H16         4.4250   -0.3290   -4.6390 hc        1 MOL      0.064506
     41 N4          5.6460    0.3950   -2.4720 n         1 MOL     -0.641567
     42 C14         5.7590    1.6690   -1.7800 c3        1 MOL      0.074043
     43 C15         6.8170    1.7740   -0.6480 c         1 MOL      0.612098
     44 O9          7.6630    0.8800   -0.5650 o         1 MOL     -0.523746
     45 H17         6.1630    0.2850   -3.3260 hn        1 MOL      0.362050
     46 H18         4.7570    1.9460   -1.4390 h1        1 MOL      0.071313
     47 H19         5.9390    2.4450   -2.5240 h1        1 MOL      0.071313
     48 N5          6.9350    2.7560    0.2090 n         1 MOL     -0.501920
     49 C16         6.0510    3.9100    0.3220 c3        1 MOL      0.027221
     50 C17         5.7410    4.2560    1.8000 c         1 MOL      0.558348
     51 O10         6.6130    4.0500    2.6070 o         1 MOL     -0.488512
     52 C18         6.6460    5.0690   -0.3220 c3        1 MOL     -0.135906
     53 C19         6.7040    4.9360   -1.8350 c         1 MOL      0.600989
     54 N6          5.5670    4.9940   -2.5440 n         1 MOL     -0.809410
     55 O11         7.7320    4.5220   -2.3440 o         1 MOL     -0.520694
     56 H20         7.4470    2.5230    1.0470 hn        1 MOL      0.321971
     57 H21         5.1040    3.6730   -0.1720 h1        1 MOL      0.000182
     58 H22         7.6540    5.2190    0.0700 hc        1 MOL      0.051838
     59 H23         6.0230    5.9310   -0.1200 hc        1 MOL      0.051838
     60 H24         4.6620    5.1140   -2.1190 hn        1 MOL      0.373451
     61 H25         5.6840    5.0690   -3.5390 hn        1 MOL      0.373451
     62 N7          4.6250    4.8900    2.0640 n         1 MOL     -0.404645
     63 C20         4.0220    5.2510    3.3780 c3        1 MOL     -0.135156
     64 C21         2.5920    5.6570    3.2960 c         1 MOL      0.522178
     65 O12         2.1690    6.5190    4.0640 o         1 MOL     -0.537007
     66 H26         4.0690    5.0670    1.2430 hn        1 MOL      0.293072
     67 H27         4.4560    6.1070    3.8870 h1        1 MOL      0.126845
     68 H28         4.1620    4.3880    4.0220 h1        1 MOL      0.126845
     69 N8          1.7630    4.9880    2.4960 n         1 MOL     -0.290595
     70 C22         0.3700    5.2990    2.2580 c3        1 MOL      0.021177
     71 C23        -0.5020    4.0680    1.9460 c         1 MOL      0.393156
     72 O13        -0.0060    2.9820    1.6200 o         1 MOL     -0.511081
     73 C24         0.2630    6.2900    1.0950 c3        1 MOL      0.229323
     74 C25         0.9990    7.6590    1.3480 c3        1 MOL     -0.327830
     75 O14         0.8560    5.7540   -0.1130 oh        1 MOL     -0.625144
     76 H29         2.1240    4.2780    1.8720 hn        1 MOL      0.196403
     77 H30         0.0370    5.8460    3.1440 h1        1 MOL      0.082884
     78 H31        -0.7620    6.5030    0.8070 h1        1 MOL      0.058637
     79 H32         0.2750    6.0130   -0.8310 ho        1 MOL      0.414105
     80 H33         2.0240    7.6480    1.7170 hc        1 MOL      0.085521
     81 H34         1.0420    8.1020    0.3480 hc        1 MOL      0.085521
     82 H35         0.3650    8.3290    1.9350 hc        1 MOL      0.085521
     83 N9         -1.8250    4.1670    2.0760 n         1 MOL     -0.267767
     84 C26        -2.8740    3.2130    1.8890 c3        1 MOL      0.053350
     85 C27        -3.7700    3.5880    0.6900 c         1 MOL      0.324787
     86 O15        -4.3310    4.6910    0.7110 o         1 MOL     -0.541859
     87 C28        -3.7640    2.9600    3.1630 c3        1 MOL      0.193992
     88 C29        -4.9360    1.9070    3.0190 c3        1 MOL      0.053169
     89 C30        -2.9180    2.8000    4.3930 c3        1 MOL     -0.215873
     90 C31        -6.0460    1.9230    4.0960 c3        1 MOL     -0.312039
     91 H36        -2.2720    5.0680    2.2340 hn        1 MOL      0.190760
     92 H37        -2.4310    2.2410    1.6830 h1        1 MOL      0.143421
     93 H38        -4.3250    3.8860    3.3040 hc        1 MOL     -0.037256
     94 H39        -4.5240    0.9150    2.8740 hc        1 MOL      0.013684
     95 H40        -5.4330    2.0720    2.0650 hc        1 MOL      0.013684
     96 H41        -2.2540    3.6410    4.5960 hc        1 MOL      0.044354
     97 H42        -3.5450    2.8920    5.2780 hc        1 MOL      0.044354
     98 H43        -2.3390    1.8840    4.4240 hc        1 MOL      0.044354
     99 H44        -6.8610    1.2370    3.8520 hc        1 MOL      0.073107
    100 H45        -5.6160    1.7070    5.0690 hc        1 MOL      0.073107
    101 H46        -6.4790    2.9230    4.1800 hc        1 MOL      0.073107
    102 N10        -3.8090    2.7240   -0.3320 n         1 MOL     -0.271943
    103 C32        -4.7230    2.8230   -1.5230 c3        1 MOL      0.408663
    104 C33        -5.7270    1.5900   -1.6900 c         1 MOL      0.379874
    105 O16        -6.2110    1.4830   -2.7760 o         1 MOL     -0.540715
    106 C34        -3.9450    3.2450   -2.8210 c3        1 MOL     -0.438609
    107 C35        -2.5780    2.6110   -2.9890 c         1 MOL      0.936383
    108 O17        -1.5490    3.0260   -2.4530 o         1 MOL     -0.807226
    109 O18        -2.4540    1.5550   -3.6480 o         1 MOL     -0.807226
    110 H47        -3.3760    1.8270   -0.2560 hn        1 MOL      0.164614
    111 H48        -5.3990    3.6430   -1.2610 h1        1 MOL     -0.005107
    112 H49        -3.8330    4.3240   -2.7960 hc        1 MOL      0.083019
    113 H50        -4.5670    3.0300   -3.6860 hc        1 MOL      0.083019
    114 N11        -5.9120    0.7860   -0.6930 n         1 MOL     -0.545548
    115 C36        -6.7240   -0.4230   -0.8470 c3        1 MOL      0.638295
    116 C37        -6.0820   -1.7960   -0.4090 c         1 MOL      0.184453
    117 O19        -6.5980   -2.3500    0.5620 o         1 MOL     -0.472167
    118 C38        -8.1170   -0.0810   -0.2970 c3        1 MOL     -0.396937
    119 C39        -9.1780   -1.1010   -0.6100 ca        1 MOL      0.069716
    120 C40        -9.4170   -1.4800   -2.0000 ca        1 MOL     -0.088342
    121 C41        -9.9080   -1.7470    0.4040 ca        1 MOL     -0.088342
    122 C42       -10.4490   -2.3590   -2.3300 ca        1 MOL     -0.171625
    123 C43       -11.0330   -2.4970    0.0400 ca        1 MOL     -0.171625
    124 C44       -11.3160   -2.8380   -1.2940 ca        1 MOL     -0.094282
    125 H51        -5.3750    0.9940    0.1380 hn        1 MOL      0.250015
    126 H52        -6.9490   -0.7160   -1.8790 h1        1 MOL     -0.037910
    127 H53        -8.3210    0.8570   -0.8100 hc        1 MOL      0.118841
    128 H54        -8.1420    0.1250    0.7750 hc        1 MOL      0.118841
    129 H55        -8.8620   -1.0420   -2.8140 ha        1 MOL      0.104359
    130 H56        -9.7750   -1.4070    1.4200 ha        1 MOL      0.104359
    131 H57       -10.6800   -2.6260   -3.3480 ha        1 MOL      0.112901
    132 H58       -11.7380   -2.9250    0.7340 ha        1 MOL      0.112901
    133 H59       -12.2060   -3.3430   -1.6200 ha        1 MOL      0.094720
    134 N12        -4.9740   -2.2770   -1.0070 n         1 MOL     -0.036482
    135 C45        -4.4500   -3.5610   -0.6740 c3        1 MOL     -0.005488
    136 C46        -3.9330   -3.7280    0.7430 c         1 MOL      0.222585
    137 O20        -3.8560   -4.8130    1.3120 o         1 MOL     -0.516430
    138 C47        -3.2970   -3.7790   -1.6850 c3        1 MOL      0.059916
    139 C48        -3.6820   -2.8390   -2.8540 c3        1 MOL     -0.256216
    140 C49        -4.4350   -1.7010   -2.1940 c3        1 MOL      0.132308
    141 H60        -5.2640   -4.2760   -0.7820 h1        1 MOL      0.060329
    142 H61        -2.3890   -3.4610   -1.1690 hc        1 MOL      0.029952
    143 H62        -3.2620   -4.8310   -1.9530 hc        1 MOL      0.029952
    144 H63        -2.7780   -2.4370   -3.3140 hc        1 MOL      0.068916
    145 H64        -4.3710   -3.2280   -3.6040 hc        1 MOL      0.068916
    146 H65        -3.8580   -0.7820   -2.0200 h1        1 MOL      0.027879
    147 H66        -5.3090   -1.4900   -2.8170 h1        1 MOL      0.027879
    148 N13        -3.6910   -2.6380    1.3750 n         1 MOL     -0.032418
    149 C50        -3.0940   -2.6740    2.7600 c3        1 MOL     -0.267640
    150 C51        -4.1870   -3.0300    3.7530 c         1 MOL      0.578674
    151 O21        -3.8780   -3.6620    4.7650 o         1 MOL     -0.559893
    152 C52        -2.5130   -1.2980    3.0410 c3        1 MOL      0.066575
    153 C53        -1.6450   -0.6360    1.8450 c3        1 MOL     -0.265232
    154 C54        -2.3160   -0.0950    0.6330 c         1 MOL      0.609732
    155 O22        -1.6590    0.2470   -0.3890 o         1 MOL     -0.724682
    156 O23        -3.5660   -0.0210    0.6340 o         1 MOL     -0.724682
    157 H67        -3.7470   -1.7420    0.9100 hn        1 MOL      0.318033
    158 H68        -2.3560   -3.4680    2.8090 h1        1 MOL      0.146542
    159 H69        -1.8390   -1.4510    3.8910 hc        1 MOL     -0.004983
    160 H70        -3.3100   -0.6270    3.3810 hc        1 MOL     -0.004983
    161 H71        -0.9460   -1.4260    1.5430 hc        1 MOL      0.103237
    162 H72        -1.0590    0.1300    2.3520 hc        1 MOL      0.103237
    163 N14        -5.4360   -2.6190    3.4370 n         1 MOL     -0.135438
    164 C55        -6.6060   -2.9360    4.1570 c3        1 MOL     -0.304930
    165 H73        -6.8980   -3.9640    3.9410 h1        1 MOL      0.104724
    166 H74        -6.4160   -2.8300    5.2250 h1        1 MOL      0.104724
    167 H75        -7.4110   -2.2630    3.8610 h1        1 MOL      0.104724
    168 H76        -5.5430   -1.9640    2.6690 hn        1 MOL      0.160997
    169 Ca1        -0.2940    0.4840   -2.5060 Ca        1 MOL      1.776984
    170 O24         0.0360   -2.1710   -2.0220 oh        1 MOL     -0.839127
    171 H77         0.5330   -1.8740   -1.2660 ho        1 MOL      0.402298
    172 H78         0.1740   -3.1130   -2.0450 ho        1 MOL      0.402298
    173 O25         0.5550    1.9550   -4.6910 oh        1 MOL     -0.839127
    174 H79         0.2250    2.7860   -5.0340 ho        1 MOL      0.402298
    175 H80         1.2720    1.7130   -5.2760 ho        1 MOL      0.402298
    176 O26         1.0130    2.6280   -1.4130 oh        1 MOL     -0.839127
    177 H81         0.1810    3.0300   -1.1580 ho        1 MOL      0.402298
    178 H82         1.6620    3.0020   -0.8120 ho        1 MOL      0.402298
    179 O27        -0.7350   -0.9370   -4.6330 oh        1 MOL     -0.839127
    180 H83        -1.0490   -1.0340   -5.5320 ho        1 MOL      0.402298
    181 H84         0.1360   -1.3350   -4.6330 ho        1 MOL      0.402298
    182 O28         1.5430   -0.5070   -0.6800 oh        1 MOL     -0.839127
    183 H85         1.6990   -0.2110    0.2170 ho        1 MOL      0.402298
    184 H86         2.4210   -0.5190   -1.0740 ho        1 MOL      0.402298
@<TRIPOS>BOND
     1    1    2 1   
     2    1    4 1   
     3    1    5 1   
     4    1    6 1   
     5    2    3 2   
     6    2    7 1   
     7    7    8 1   
     8    7   15 1   
     9    8    9 1   
    10    8   11 1   
    11    8   16 1   
    12    9   10 2   
    13    9   19 1   
    14   11   12 1   
    15   11   17 1   
    16   11   18 1   
    17   12   13 1   
    18   12   14 1   
    19   19   20 1   
    20   19   24 1   
    21   20   21 1   
    22   20   23 1   
    23   20   25 1   
    24   21   22 2   
    25   21   29 1   
    26   23   26 1   
    27   23   27 1   
    28   23   28 1   
    29   29   30 1   
    30   29   37 1   
    31   30   31 1   
    32   30   33 1   
    33   30   38 1   
    34   31   32 2   
    35   31   41 1   
    36   33   34 1   
    37   33   39 1   
    38   33   40 1   
    39   34   35 1   
    40   34   36 1   
    41   41   42 1   
    42   41   45 1   
    43   42   43 1   
    44   42   46 1   
    45   42   47 1   
    46   43   44 2   
    47   43   48 1   
    48   48   49 1   
    49   48   56 1   
    50   49   50 1   
    51   49   52 1   
    52   49   57 1   
    53   50   51 2   
    54   50   62 1   
    55   52   53 1   
    56   52   58 1   
    57   52   59 1   
    58   53   54 1   
    59   53   55 2   
    60   54   60 1   
    61   54   61 1   
    62   62   63 1   
    63   62   66 1   
    64   63   64 1   
    65   63   67 1   
    66   63   68 1   
    67   64   65 2   
    68   64   69 1   
    69   69   70 1   
    70   69   76 1   
    71   70   71 1   
    72   70   73 1   
    73   70   77 1   
    74   71   72 2   
    75   71   83 1   
    76   73   74 1   
    77   73   75 1   
    78   73   78 1   
    79   74   80 1   
    80   74   81 1   
    81   74   82 1   
    82   75   79 1   
    83   83   84 1   
    84   83   91 1   
    85   84   85 1   
    86   84   87 1   
    87   84   92 1   
    88   85   86 2   
    89   85  102 1   
    90   87   88 1   
    91   87   89 1   
    92   87   93 1   
    93   88   90 1   
    94   88   94 1   
    95   88   95 1   
    96   89   96 1   
    97   89   97 1   
    98   89   98 1   
    99   90   99 1   
   100   90  100 1   
   101   90  101 1   
   102  102  103 1   
   103  102  110 1   
   104  103  104 1   
   105  103  106 1   
   106  103  111 1   
   107  104  105 2   
   108  104  114 1   
   109  106  107 1   
   110  106  112 1   
   111  106  113 1   
   112  107  108 1   
   113  107  109 1   
   114  114  115 1   
   115  114  125 1   
   116  115  116 1   
   117  115  118 1   
   118  115  126 1   
   119  116  117 2   
   120  116  134 1   
   121  118  119 1   
   122  118  127 1   
   123  118  128 1   
   124  119  120 ar  
   125  119  121 ar  
   126  120  122 ar  
   127  120  129 1   
   128  121  123 ar  
   129  121  130 1   
   130  122  124 ar  
   131  122  131 1   
   132  123  124 ar  
   133  123  132 1   
   134  124  133 1   
   135  134  135 1   
   136  134  140 1   
   137  135  136 1   
   138  135  138 1   
   139  135  141 1   
   140  136  137 2   
   141  136  148 1   
   142  138  139 1   
   143  138  142 1   
   144  138  143 1   
   145  139  140 1   
   146  139  144 1   
   147  139  145 1   
   148  140  146 1   
   149  140  147 1   
   150  148  149 1   
   151  148  157 1   
   152  149  150 1   
   153  149  152 1   
   154  149  158 1   
   155  150  151 2   
   156  150  163 1   
   157  152  153 1   
   158  152  159 1   
   159  152  160 1   
   160  153  154 1   
   161  153  161 1   
   162  153  162 1   
   163  154  155 1   
   164  154  156 1   
   165  163  164 1   
   166  163  168 1   
   167  164  165 1   
   168  164  166 1   
   169  164  167 1   
   170  170  171 1   
   171  170  172 1   
   172  173  174 1   
   173  173  175 1   
   174  176  177 1   
   175  176  178 1   
   176  179  180 1   
   177  179  181 1   
   178  182  183 1   
   179  182  184 1   
@<TRIPOS>SUBSTRUCTURE
     1 MOL         1 TEMP              0 ****  ****    0 ROOT
