@<TRIPOS>MOLECULE
MOL
  182   178     1     0     0
SMALL
resp


@<TRIPOS>ATOM
      1 C1          0.4620   -3.0770    6.3960 c3        1 MOL     -0.533626
      2 C2          0.3480   -3.1870    4.8580 c         1 MOL      0.800350
      3 O1         -0.7080   -3.0010    4.2490 o         1 MOL     -0.616982
      4 H1          1.5130   -3.0220    6.6780 hc        1 MOL      0.150974
      5 H2         -0.0520   -2.1780    6.7350 hc        1 MOL      0.150974
      6 H3          0.0070   -3.9530    6.8580 hc        1 MOL      0.150974
      7 N1          1.5220   -3.2790    4.2160 n         1 MOL     -0.618057
      8 C3          1.7830   -3.0110    2.7620 c3        1 MOL      0.032013
      9 C4          1.5360   -4.2390    1.9060 c         1 MOL      0.672263
     10 O2          1.5510   -5.3720    2.3850 o         1 MOL     -0.546481
     11 C5          3.1860   -2.3340    2.6600 c3        1 MOL     -0.257682
     12 C6          3.3500   -1.5510    1.4550 c         1 MOL      0.801187
     13 O3          3.8800   -0.4310    1.5910 o         1 MOL     -0.780408
     14 O4          2.9410   -1.9010    0.3780 o         1 MOL     -0.780408
     15 H4          2.3830   -3.3190    4.7540 hn        1 MOL      0.330009
     16 H5          1.1070   -2.2370    2.4110 h1        1 MOL      0.004361
     17 H6          3.9470   -3.1090    2.6930 hc        1 MOL      0.101664
     18 H7          3.4230   -1.7050    3.5100 hc        1 MOL      0.101664
     19 N2          1.2140   -4.0740    0.5430 n         1 MOL     -0.233528
     20 C7          1.2560   -5.1790   -0.4990 c3        1 MOL     -0.082253
     21 C8          2.4530   -5.1850   -1.4210 c         1 MOL      0.580690
     22 O5          2.8550   -6.2610   -1.8100 o         1 MOL     -0.538953
     23 C9         -0.1270   -5.2680   -1.2020 c3        1 MOL     -0.055326
     24 C10        -0.4940   -6.5280   -1.9600 c3        1 MOL      0.004973
     25 C11        -1.9010   -6.5680   -2.5300 c3        1 MOL     -0.142008
     26 C12        -3.0360   -6.6440   -1.5010 c3        1 MOL      0.107861
     27 N3         -4.4140   -6.5810   -2.1880 n4        1 MOL     -0.348015
     28 H8          1.1050   -3.1270    0.2060 hn        1 MOL     -0.151307
     29 H9          1.4200   -6.1240    0.0160 h1        1 MOL      0.117290
     30 H10        -0.2290   -4.3880   -1.8530 hc        1 MOL      0.044808
     31 H11        -0.9000   -5.1450   -0.4430 hc        1 MOL      0.044808
     32 H12        -0.2050   -7.3520   -1.3080 hc        1 MOL      0.046489
     33 H13         0.2600   -6.6570   -2.7320 hc        1 MOL      0.046489
     34 H14        -1.8960   -7.4170   -3.2140 hc        1 MOL      0.052283
     35 H15        -2.1470   -5.6560   -3.0540 hc        1 MOL      0.052283
     36 H16        -2.8540   -5.8090   -0.8240 hx        1 MOL      0.075609
     37 H17        -2.8320   -7.5410   -0.9230 hx        1 MOL      0.075609
     38 H18        -4.5950   -5.6220   -2.4550 hn        1 MOL      0.286414
     39 H19        -4.4820   -7.1470   -3.0150 hn        1 MOL      0.286414
     40 H20        -5.2070   -6.9880   -1.7180 hn        1 MOL      0.286414
     41 N4          3.1470   -4.0040   -1.6690 n         1 MOL     -0.398162
     42 C13         4.4910   -4.0030   -2.3980 c3        1 MOL      0.169151
     43 C14         5.7060   -3.7920   -1.4740 c         1 MOL      0.377130
     44 O6          6.8190   -4.2570   -1.8130 o         1 MOL     -0.546409
     45 C15         4.3450   -3.0350   -3.6190 c3        1 MOL     -0.423582
     46 C16         3.9010   -1.6260   -3.0610 c         1 MOL      0.848910
     47 O7          4.4910   -1.1990   -2.0120 o         1 MOL     -0.771845
     48 O8          2.9380   -0.9490   -3.5150 o         1 MOL     -0.771845
     49 H21         2.9270   -3.0860   -1.2970 hn        1 MOL      0.293721
     50 H22         4.5270   -4.9960   -2.8630 h1        1 MOL      0.079710
     51 H23         3.6290   -3.4190   -4.3470 hc        1 MOL      0.124629
     52 H24         5.3390   -2.8990   -4.0320 hc        1 MOL      0.124629
     53 N5          5.4270   -3.2470   -0.3410 n         1 MOL     -0.087929
     54 C17         6.4390   -3.0720    0.7380 c3        1 MOL     -0.218591
     55 C18         7.0180   -1.6620    0.9500 c         1 MOL      0.551766
     56 O9          7.7990   -1.4670    1.8810 o         1 MOL     -0.528863
     57 H25         4.5560   -2.7790   -0.1550 hn        1 MOL      0.066129
     58 H26         7.3110   -3.6490    0.4270 h1        1 MOL      0.115283
     59 H27         6.0730   -3.3630    1.7240 h1        1 MOL      0.115283
     60 N6          6.7220   -0.8030   -0.0550 n         1 MOL     -0.251240
     61 C19         7.2950    0.5200   -0.2350 c3        1 MOL      0.157858
     62 C20         6.3560    1.7560   -0.1660 c         1 MOL      0.370844
     63 O10         5.1260    1.5750   -0.4070 o         1 MOL     -0.369779
     64 C21         8.0450    0.6030   -1.5990 c3        1 MOL     -0.305231
     65 C22         9.2400   -0.3040   -1.5610 c         1 MOL      0.675353
     66 N7          9.3030   -1.1990   -2.5080 n         1 MOL     -0.786504
     67 O11        10.0860   -0.1960   -0.7010 o         1 MOL     -0.538872
     68 H28         5.9520   -1.0400   -0.6740 hn        1 MOL      0.254990
     69 H29         8.0330    0.7050    0.5480 h1        1 MOL      0.029695
     70 H30         8.4440    1.6140   -1.6340 hc        1 MOL      0.066696
     71 H31         7.2800    0.2540   -2.3020 hc        1 MOL      0.066696
     72 H32         8.7210   -1.2810   -3.3260 hn        1 MOL      0.366512
     73 H33        10.1220   -1.7950   -2.5340 hn        1 MOL      0.366512
     74 N8          6.8650    2.9920   -0.0060 n         1 MOL     -0.380147
     75 C23         6.1130    4.2000   -0.3160 c3        1 MOL     -0.089502
     76 C24         4.8940    4.4400    0.5060 c         1 MOL      0.511353
     77 O12         4.9870    4.5250    1.7510 o         1 MOL     -0.520499
     78 H34         7.8470    3.1730    0.1430 hn        1 MOL      0.332863
     79 H35         5.8410    4.3070   -1.3690 h1        1 MOL      0.078678
     80 H36         6.7170    5.0800   -0.0940 h1        1 MOL      0.078678
     81 N9          3.6970    4.6130   -0.0170 n         1 MOL     -0.429872
     82 C25         2.3960    4.7280    0.6660 c3        1 MOL      0.090141
     83 C26         1.9350    3.2710    1.1710 c         1 MOL      0.604202
     84 O13         2.5060    2.3160    0.7420 o         1 MOL     -0.467302
     85 C27         1.3810    5.4040   -0.2380 c3        1 MOL     -0.195876
     86 C28         1.7130    6.8250   -0.6220 ca        1 MOL      0.078513
     87 C29         2.1410    7.7000    0.3620 ca        1 MOL     -0.156497
     88 C30         1.7870    7.2230   -1.9720 ca        1 MOL     -0.156497
     89 C31         2.5870    8.9820   -0.0960 ca        1 MOL     -0.268599
     90 C32         2.0960    8.5030   -2.4080 ca        1 MOL     -0.268599
     91 C33         2.5010    9.3860   -1.4900 ca        1 MOL      0.364197
     92 O14         2.6660   10.6890   -1.7870 oh        1 MOL     -0.493019
     93 H37         3.6120    4.5080   -1.0130 hn        1 MOL      0.253561
     94 H38         2.6330    5.3480    1.5280 h1        1 MOL      0.087175
     95 H39         0.3430    5.4250    0.0890 hc        1 MOL      0.064253
     96 H40         1.3380    4.8340   -1.1740 hc        1 MOL      0.064253
     97 H41         2.2380    7.3340    1.3690 ha        1 MOL      0.128744
     98 H42         1.4700    6.5400   -2.7500 ha        1 MOL      0.128744
     99 H43         2.9350    9.6530    0.6720 ha        1 MOL      0.158910
    100 H44         2.0010    8.8610   -3.4210 ha        1 MOL      0.158910
    101 H45         2.8450   11.2970   -1.0590 ho        1 MOL      0.377897
    102 N10         0.9220    3.1880    1.9670 n         1 MOL     -0.727272
    103 C34         0.3210    1.9530    2.5120 c3        1 MOL      0.331389
    104 C35        -0.0240    0.8910    1.4430 c         1 MOL      0.114165
    105 O15         0.8280    0.3230    0.7940 o         1 MOL     -0.022132
    106 C36         1.2480    1.2730    3.6060 c3        1 MOL      0.016580
    107 C37         0.4270    0.3100    4.4640 c3        1 MOL     -0.098016
    108 C38         1.9120    2.1890    4.6230 c3        1 MOL     -0.187389
    109 C39        -0.7990    0.8220    5.2060 c3        1 MOL     -0.448863
    110 H46         0.5680    4.0940    2.2570 hn        1 MOL      0.339467
    111 H47        -0.6280    2.2860    2.9310 h1        1 MOL      0.036388
    112 H48         2.0350    0.6910    3.1310 hc        1 MOL      0.053739
    113 H49         1.0630   -0.1110    5.2440 hc        1 MOL      0.095391
    114 H50         0.0290   -0.4790    3.8270 hc        1 MOL      0.095391
    115 H51         2.4990    1.6090    5.3360 hc        1 MOL      0.061448
    116 H52         2.5780    2.8880    4.1210 hc        1 MOL      0.061448
    117 H53         1.2410    2.7230    5.2920 hc        1 MOL      0.061448
    118 H54        -1.5290    1.2470    4.5160 hc        1 MOL      0.116905
    119 H55        -1.2410   -0.0380    5.7050 hc        1 MOL      0.116905
    120 H56        -0.5630    1.4910    6.0340 hc        1 MOL      0.116905
    121 N11        -1.2920    0.4840    1.2460 n         1 MOL     -0.474241
    122 C40        -1.7030   -0.6040    0.3150 c3        1 MOL     -0.023858
    123 C41        -3.1580   -0.6560   -0.1150 c         1 MOL      0.544329
    124 O16        -3.4960   -1.5050   -0.9450 o         1 MOL     -0.523025
    125 C42        -1.2960   -1.9560    0.8930 c3        1 MOL      0.462472
    126 O17        -2.0050   -2.3670    2.0140 oh        1 MOL     -0.757923
    127 H57        -2.0150    0.9150    1.8210 hn        1 MOL      0.345210
    128 H58        -1.1730   -0.5520   -0.6340 h1        1 MOL      0.018632
    129 H59        -0.2300   -1.9030    1.1150 h1        1 MOL     -0.007730
    130 H60        -1.5840   -2.6360    0.1010 h1        1 MOL     -0.007730
    131 H61        -1.4940   -2.4850    2.8150 ho        1 MOL      0.491917
    132 N12        -3.9930    0.2020    0.5030 n         1 MOL     -0.531598
    133 C43        -5.4050    0.2600    0.1030 c3        1 MOL      0.252552
    134 C44        -5.5670    0.6740   -1.4070 c         1 MOL      0.481125
    135 O18        -4.6600    1.2890   -2.0300 o         1 MOL     -0.553617
    136 C45        -6.1900    1.0910    1.1420 c3        1 MOL     -0.184380
    137 H62        -3.6370    0.9160    1.1280 hn        1 MOL      0.255235
    138 H63        -5.8420   -0.7320    0.2220 h1        1 MOL      0.046437
    139 H64        -5.8850    2.1230    0.9540 hc        1 MOL      0.059495
    140 H65        -7.2390    1.1350    0.8600 hc        1 MOL      0.059495
    141 H66        -6.0610    0.7400    2.1690 hc        1 MOL      0.059495
    142 N13        -6.6580    0.4640   -2.1350 n         1 MOL     -0.523233
    143 C46        -7.9320   -0.0550   -1.6580 c3        1 MOL      0.371967
    144 C47        -9.1550    0.7330   -2.2870 c         1 MOL      0.334891
    145 O19        -9.1110    1.1870   -3.4480 o         1 MOL     -0.520550
    146 C48        -7.9880   -1.6040   -1.9030 c3        1 MOL     -0.344606
    147 H67        -6.6970    1.0260   -2.9690 hn        1 MOL      0.311503
    148 H68        -7.9930    0.0780   -0.5810 h1        1 MOL      0.006907
    149 H69        -8.2210   -1.8260   -2.9440 hc        1 MOL      0.089049
    150 H70        -7.0700   -2.1090   -1.6220 hc        1 MOL      0.089049
    151 H71        -8.7770   -1.9400   -1.2390 hc        1 MOL      0.089049
    152 N14       -10.3030    0.8520   -1.6420 n         1 MOL     -0.360661
    153 C49       -10.5170    0.8360   -0.1950 c3        1 MOL      0.032585
    154 C50        -9.8200    2.0160    0.4730 c         1 MOL      0.327421
    155 O20        -9.3870    1.9490    1.5940 o         1 MOL     -0.473901
    156 C51       -11.9870    0.9370    0.0800 c3        1 MOL     -0.288815
    157 C52       -12.5070   -0.5160    0.2080 c3        1 MOL     -0.020697
    158 C53       -14.0280   -0.6780    0.2500 c         1 MOL      0.657082
    159 O21       -14.5620    0.1420    1.0380 o         1 MOL     -0.666518
    160 O22       -14.6390   -1.4330   -0.5140 o         1 MOL     -0.666518
    161 H72       -11.0960    1.0890   -2.2090 hn        1 MOL      0.328049
    162 H73       -10.0500   -0.0600    0.2210 h1        1 MOL      0.080836
    163 H74       -12.5260    1.5430   -0.6400 hc        1 MOL      0.133977
    164 H75       -12.1220    1.2850    1.1040 hc        1 MOL      0.133977
    165 H76       -12.0480   -0.9200    1.1120 hc        1 MOL     -0.016145
    166 H77       -12.1230   -1.0880   -0.6270 hc        1 MOL     -0.016145
    167 N15        -9.6470    3.1470   -0.1990 n         1 MOL     -0.181007
    168 C54        -8.9190    4.3420    0.2690 c3        1 MOL     -0.206478
    169 H78        -7.9300    4.0500    0.6230 h1        1 MOL      0.102032
    170 H79        -8.8160    5.0510   -0.5520 h1        1 MOL      0.102032
    171 H80        -9.4720    4.8090    1.0850 h1        1 MOL      0.102032
    172 H81       -10.1210    3.1230   -1.0870 hn        1 MOL      0.194467
    173 Ca1         2.7810    0.3370   -0.9080 Ca        1 MOL      1.668127
    174 O23         3.7250    2.0980   -2.6780 oh        1 MOL     -0.864599
    175 H82         4.1040    1.6300   -3.4180 ho        1 MOL      0.416785
    176 H83         3.4920    2.9550   -3.0400 ho        1 MOL      0.416785
    177 O24         0.7870    1.6640   -1.8980 oh        1 MOL     -0.864599
    178 H84         0.2120    1.0170   -2.3080 ho        1 MOL      0.416785
    179 H85         0.3440    2.4990   -2.0410 ho        1 MOL      0.416785
    180 O25         0.8790   -1.7050   -1.8740 oh        1 MOL     -0.864599
    181 H86         1.3170   -1.4350   -2.6800 ho        1 MOL      0.416785
    182 H87        -0.0530   -1.7400   -2.1070 ho        1 MOL      0.416785
@<TRIPOS>BOND
     1    1    2 1   
     2    1    4 1   
     3    1    5 1   
     4    1    6 1   
     5    2    3 2   
     6    2    7 1   
     7    7    8 1   
     8    7   15 1   
     9    8    9 1   
    10    8   11 1   
    11    8   16 1   
    12    9   10 2   
    13    9   19 1   
    14   11   12 1   
    15   11   17 1   
    16   11   18 1   
    17   12   13 1   
    18   12   14 1   
    19   19   20 1   
    20   19   28 1   
    21   20   21 1   
    22   20   23 1   
    23   20   29 1   
    24   21   22 2   
    25   21   41 1   
    26   23   24 1   
    27   23   30 1   
    28   23   31 1   
    29   24   25 1   
    30   24   32 1   
    31   24   33 1   
    32   25   26 1   
    33   25   34 1   
    34   25   35 1   
    35   26   27 1   
    36   26   36 1   
    37   26   37 1   
    38   27   38 1   
    39   27   39 1   
    40   27   40 1   
    41   41   42 1   
    42   41   49 1   
    43   42   43 1   
    44   42   45 1   
    45   42   50 1   
    46   43   44 2   
    47   43   53 1   
    48   45   46 1   
    49   45   51 1   
    50   45   52 1   
    51   46   47 1   
    52   46   48 1   
    53   53   54 1   
    54   53   57 1   
    55   54   55 1   
    56   54   58 1   
    57   54   59 1   
    58   55   56 2   
    59   55   60 1   
    60   60   61 1   
    61   60   68 1   
    62   61   62 1   
    63   61   64 1   
    64   61   69 1   
    65   62   63 2   
    66   62   74 1   
    67   64   65 1   
    68   64   70 1   
    69   64   71 1   
    70   65   66 1   
    71   65   67 2   
    72   66   72 1   
    73   66   73 1   
    74   74   75 1   
    75   74   78 1   
    76   75   76 1   
    77   75   79 1   
    78   75   80 1   
    79   76   77 2   
    80   76   81 1   
    81   81   82 1   
    82   81   93 1   
    83   82   83 1   
    84   82   85 1   
    85   82   94 1   
    86   83   84 2   
    87   83  102 1   
    88   85   86 1   
    89   85   95 1   
    90   85   96 1   
    91   86   87 ar  
    92   86   88 ar  
    93   87   89 ar  
    94   87   97 1   
    95   88   90 ar  
    96   88   98 1   
    97   89   91 ar  
    98   89   99 1   
    99   90   91 ar  
   100   90  100 1   
   101   91   92 1   
   102   92  101 1   
   103  102  103 1   
   104  102  110 1   
   105  103  104 1   
   106  103  106 1   
   107  103  111 1   
   108  104  105 2   
   109  104  121 1   
   110  106  107 1   
   111  106  108 1   
   112  106  112 1   
   113  107  109 1   
   114  107  113 1   
   115  107  114 1   
   116  108  115 1   
   117  108  116 1   
   118  108  117 1   
   119  109  118 1   
   120  109  119 1   
   121  109  120 1   
   122  121  122 1   
   123  121  127 1   
   124  122  123 1   
   125  122  125 1   
   126  122  128 1   
   127  123  124 2   
   128  123  132 1   
   129  125  126 1   
   130  125  129 1   
   131  125  130 1   
   132  126  131 1   
   133  132  133 1   
   134  132  137 1   
   135  133  134 1   
   136  133  136 1   
   137  133  138 1   
   138  134  135 2   
   139  134  142 1   
   140  136  139 1   
   141  136  140 1   
   142  136  141 1   
   143  142  143 1   
   144  142  147 1   
   145  143  144 1   
   146  143  146 1   
   147  143  148 1   
   148  144  145 2   
   149  144  152 1   
   150  146  149 1   
   151  146  150 1   
   152  146  151 1   
   153  152  153 1   
   154  152  161 1   
   155  153  154 1   
   156  153  156 1   
   157  153  162 1   
   158  154  155 2   
   159  154  167 1   
   160  156  157 1   
   161  156  163 1   
   162  156  164 1   
   163  157  158 1   
   164  157  165 1   
   165  157  166 1   
   166  158  159 1   
   167  158  160 1   
   168  167  168 1   
   169  167  172 1   
   170  168  169 1   
   171  168  170 1   
   172  168  171 1   
   173  174  175 1   
   174  174  176 1   
   175  177  178 1   
   176  177  179 1   
   177  180  181 1   
   178  180  182 1   
@<TRIPOS>SUBSTRUCTURE
     1 MOL         1 TEMP              0 ****  ****    0 ROOT
