@<TRIPOS>MOLECULE
MOL
  189   185     1     0     0
SMALL
resp


@<TRIPOS>ATOM
      1 C1          9.1910    2.3590    1.2170 c3        1 MOL     -0.450423
      2 C2          8.1650    1.4340    0.5330 c         1 MOL      0.784275
      3 O1          7.0380    1.2730    0.9820 o         1 MOL     -0.682183
      4 H1          8.9230    3.3990    1.0320 hc        1 MOL      0.113057
      5 H2          9.1920    2.1700    2.2900 hc        1 MOL      0.113057
      6 H3         10.1840    2.1620    0.8130 hc        1 MOL      0.113057
      7 N1          8.5670    0.7830   -0.5590 n         1 MOL     -0.539123
      8 C3          7.6990    0.0310   -1.5290 c3        1 MOL     -0.096184
      9 C4          7.1850   -1.3340   -1.0200 c         1 MOL      0.484835
     10 O2          6.8550   -2.2540   -1.7640 o         1 MOL     -0.433150
     11 C5          8.3100    0.0090   -2.9270 c3        1 MOL     -0.184784
     12 C6          9.5560   -0.8570   -3.0430 c         1 MOL      0.723805
     13 O3         10.0410   -1.0540   -4.1630 o         1 MOL     -0.672298
     14 O4         10.1220   -1.3420   -2.0190 o         1 MOL     -0.672298
     15 H4          9.5540    0.7370   -0.7840 hn        1 MOL      0.271731
     16 H5          6.8240    0.6680   -1.6840 h1        1 MOL      0.162250
     17 H6          8.5430    1.0340   -3.2430 hc        1 MOL      0.075182
     18 H7          7.6000   -0.3500   -3.6810 hc        1 MOL      0.075182
     19 N2          6.9840   -1.4570    0.3370 n         1 MOL     -0.443772
     20 C7          6.6770   -2.7670    0.9670 c3        1 MOL      0.073395
     21 C8          5.3170   -3.2830    0.5930 c         1 MOL      0.579501
     22 O5          5.2560   -4.4830    0.4820 o         1 MOL     -0.572527
     23 C9          6.7830   -2.6990    2.5190 c3        1 MOL     -0.020388
     24 C10         8.1450   -2.2030    2.9550 c3        1 MOL     -0.063679
     25 C11         9.2750   -3.2100    2.6090 c3        1 MOL     -0.091118
     26 C12        10.6710   -2.6410    3.1280 c3        1 MOL      0.073327
     27 N3         11.8190   -3.4980    2.7200 n4        1 MOL     -0.386315
     28 H8          7.1870   -0.6360    0.8890 hn        1 MOL      0.293194
     29 H9          7.4070   -3.5200    0.6640 h1        1 MOL      0.050036
     30 H10         6.5930   -3.6710    2.9630 hc        1 MOL      0.029469
     31 H11         6.0090   -2.0300    2.8820 hc        1 MOL      0.029469
     32 H12         8.1830   -2.0160    4.0210 hc        1 MOL      0.021989
     33 H13         8.4320   -1.2590    2.4880 hc        1 MOL      0.021989
     34 H14         9.3850   -3.3320    1.5300 hc        1 MOL      0.075710
     35 H15         9.0470   -4.1890    3.0300 hc        1 MOL      0.075710
     36 H16        10.6370   -2.4880    4.2080 hx        1 MOL      0.067321
     37 H17        10.8440   -1.6350    2.7440 hx        1 MOL      0.067321
     38 H18        11.9740   -3.4620    1.7250 hn        1 MOL      0.326008
     39 H19        12.6530   -3.1110    3.1430 hn        1 MOL      0.326008
     40 H20        11.7310   -4.4410    3.0810 hn        1 MOL      0.326008
     41 N4          4.2030   -2.5690    0.6080 n         1 MOL     -0.420898
     42 C13         3.9110   -1.2530    1.1550 c3        1 MOL     -0.036455
     43 C14         3.9740   -0.2020    0.0370 c         1 MOL      0.098237
     44 O6          3.8040   -0.4550   -1.1560 o         1 MOL     -0.374792
     45 C15         2.6250   -1.2240    1.9510 c3        1 MOL     -0.122449
     46 C16         1.3920   -1.8230    1.3390 c         1 MOL      0.640526
     47 O7          0.4310   -1.0320    1.1240 o         1 MOL     -0.641523
     48 O8          1.3690   -3.0650    1.1080 o         1 MOL     -0.641523
     49 H21         3.3880   -3.0620    0.2530 hn        1 MOL      0.340865
     50 H22         4.7080   -0.9500    1.8420 h1        1 MOL      0.133910
     51 H23         2.3760   -0.2420    2.3530 hc        1 MOL      0.033653
     52 H24         2.8500   -1.8080    2.8460 hc        1 MOL      0.033653
     53 N5          4.0860    1.0700    0.4550 n         1 MOL     -0.054627
     54 C17         3.9230    2.2770   -0.4120 c3        1 MOL     -0.195931
     55 C18         2.5420    2.4880   -0.9250 c         1 MOL      0.104050
     56 O9          1.6180    1.7850   -0.4870 o         1 MOL     -0.181823
     57 H25         3.9550    1.2220    1.4420 hn        1 MOL      0.212373
     58 H26         4.6410    2.3070   -1.2410 h1        1 MOL      0.131900
     59 H27         4.2580    3.0940    0.2380 h1        1 MOL      0.131900
     60 N6          2.4640    3.3560   -1.9470 n         1 MOL     -0.248926
     61 C19         1.3050    4.0250   -2.5960 c3        1 MOL      0.175687
     62 C20         1.6750    5.4940   -2.9710 c         1 MOL      0.501021
     63 O10         2.8600    5.7770   -3.0390 o         1 MOL     -0.532404
     64 C21         0.7290    3.3030   -3.8660 c3        1 MOL      0.022443
     65 C22         0.4520    1.8880   -3.7220 c         1 MOL      0.608582
     66 O11        -0.4470    1.5290   -2.9170 o         1 MOL     -0.674094
     67 O12         1.1400    1.0740   -4.3850 o         1 MOL     -0.674094
     68 H28         3.3630    3.6230   -2.3270 hn        1 MOL      0.257982
     69 H29         0.6050    4.1170   -1.7630 h1        1 MOL     -0.022141
     70 H30         1.4720    3.4350   -4.6460 hc        1 MOL     -0.013272
     71 H31        -0.2160    3.7830   -4.1140 hc        1 MOL     -0.013272
     72 N7          0.7470    6.4130   -3.3660 n         1 MOL     -0.533729
     73 C23        -0.7250    6.3440   -3.3100 c3        1 MOL      0.050179
     74 C24        -1.2830    6.0250   -1.9020 c         1 MOL      0.612039
     75 O13        -0.7910    6.5400   -0.8750 o         1 MOL     -0.533849
     76 H32         1.1400    7.3350   -3.5010 hn        1 MOL      0.346570
     77 H33        -1.1840    5.6740   -4.0440 h1        1 MOL      0.046760
     78 H34        -1.2590    7.2590   -3.5460 h1        1 MOL      0.046760
     79 N8         -2.3140    5.1730   -1.8120 n         1 MOL     -0.640361
     80 C25        -2.8640    4.7350   -0.5570 c3        1 MOL      0.141742
     81 C26        -1.8970    3.8080    0.2210 c         1 MOL      0.551003
     82 O14        -1.2030    3.0020   -0.4100 o         1 MOL     -0.644721
     83 C27        -4.2590    4.1150   -0.6080 c3        1 MOL      0.630373
     84 C28        -5.2530    4.9820   -1.3760 c3        1 MOL     -0.351505
     85 O15        -4.7920    3.9220    0.6670 oh        1 MOL     -0.714905
     86 H35        -2.5390    4.6300   -2.6360 hn        1 MOL      0.329376
     87 H36        -3.0830    5.6440    0.0200 h1        1 MOL      0.049569
     88 H37        -4.1490    3.1940   -1.1710 h1        1 MOL     -0.061326
     89 H38        -5.3970    3.1740    0.6690 ho        1 MOL      0.331968
     90 H39        -6.1840    5.2070   -0.8500 hc        1 MOL      0.067968
     91 H40        -4.7950    5.8930   -1.7560 hc        1 MOL      0.067968
     92 H41        -5.6200    4.3740   -2.2030 hc        1 MOL      0.067968
     93 N9         -1.8790    3.9150    1.6150 n         1 MOL     -0.617695
     94 C29        -1.2720    2.8940    2.5750 c3        1 MOL      0.186512
     95 C30        -1.9950    1.5500    2.4940 c         1 MOL      0.605951
     96 O16        -2.0580    0.9140    1.4140 o         1 MOL     -0.536625
     97 C31         0.2630    2.7980    2.3540 c3        1 MOL      0.368492
     98 C32         1.0290    4.1230    1.9340 c3        1 MOL      0.038558
     99 C33         0.8780    2.0560    3.6340 c3        1 MOL     -0.627562
    100 C34         0.7380    5.3170    2.8290 c3        1 MOL     -0.270522
    101 H42        -2.4680    4.6390    1.9840 hn        1 MOL      0.301099
    102 H43        -1.3250    3.3210    3.5780 h1        1 MOL      0.031901
    103 H44         0.3820    2.0710    1.5530 hc        1 MOL     -0.265600
    104 H45         0.6770    4.3750    0.9410 hc        1 MOL      0.061423
    105 H46         2.1170    4.0210    1.9190 hc        1 MOL      0.061423
    106 H47         1.9320    1.8400    3.4400 hc        1 MOL      0.150042
    107 H48         0.6460    2.5490    4.5770 hc        1 MOL      0.150042
    108 H49         0.3740    1.0800    3.6480 hc        1 MOL      0.150042
    109 H50         0.9100    5.0460    3.8730 hc        1 MOL      0.056229
    110 H51         1.3950    6.0810    2.4180 hc        1 MOL      0.056229
    111 H52        -0.3310    5.5280    2.8660 hc        1 MOL      0.056229
    112 N10        -2.4340    1.0950    3.6570 n         1 MOL     -0.760834
    113 C35        -2.7700   -0.3180    3.9820 c3        1 MOL     -0.068969
    114 C36        -4.0290   -0.8060    3.2510 c         1 MOL      0.386797
    115 O17        -4.2340   -2.0420    3.1240 o         1 MOL     -0.514694
    116 C37        -2.8250   -0.5960    5.4920 c3        1 MOL      0.589653
    117 C38        -3.9670    0.0780    6.1610 c3        1 MOL     -0.323245
    118 O18        -1.5660   -0.3410    6.0810 oh        1 MOL     -0.660026
    119 H53        -2.2560    1.6890    4.4470 hn        1 MOL      0.371345
    120 H54        -1.9030   -0.8710    3.6410 h1        1 MOL      0.112589
    121 H55        -3.0470   -1.6590    5.5210 h1        1 MOL     -0.046998
    122 H56        -0.9400   -1.0650    5.9610 ho        1 MOL      0.405920
    123 H57        -4.0520   -0.3730    7.1540 hc        1 MOL      0.080067
    124 H58        -3.8620    1.1560    6.0570 hc        1 MOL      0.080067
    125 H59        -4.8400   -0.2510    5.5900 hc        1 MOL      0.080067
    126 N11        -4.8830    0.0900    2.7410 n         1 MOL      0.009427
    127 C39        -6.1530   -0.2060    2.0890 c3        1 MOL     -0.438803
    128 C40        -5.9720   -0.8350    0.6760 c         1 MOL      0.879563
    129 O19        -5.2640   -0.3260   -0.1460 o         1 MOL     -0.546479
    130 C41        -7.1750    1.0010    2.1690 c3        1 MOL      0.136987
    131 C42        -7.3670    1.5280    3.6290 c3        1 MOL     -0.262829
    132 O20        -6.5280    2.1000    1.5920 oh        1 MOL     -0.511977
    133 H60        -4.5690    1.0400    2.8530 hn        1 MOL      0.253150
    134 H61        -6.5800   -1.0350    2.6550 h1        1 MOL      0.143251
    135 H62        -8.0930    0.8040    1.6120 h1        1 MOL      0.092841
    136 H63        -7.0380    2.8540    1.9070 ho        1 MOL      0.407811
    137 H64        -7.7260    0.7340    4.2890 hc        1 MOL      0.080001
    138 H65        -6.4560    1.8960    4.0900 hc        1 MOL      0.080001
    139 H66        -8.1010    2.3280    3.5850 hc        1 MOL      0.080001
    140 N12        -6.5780   -1.9960    0.4350 n         1 MOL     -0.728510
    141 C43        -6.7380   -2.8660   -0.7340 c3        1 MOL      0.558610
    142 C44        -5.4230   -3.1780   -1.5330 c         1 MOL      0.286056
    143 O21        -5.3230   -2.6800   -2.7050 o         1 MOL     -0.500653
    144 C45        -7.8970   -2.3370   -1.6230 c3        1 MOL     -0.471164
    145 C46        -9.1050   -1.9830   -0.7590 c3        1 MOL      0.021803
    146 C47       -10.2300   -1.5540   -1.7630 c3        1 MOL     -0.001364
    147 C48       -11.4760   -1.2360   -1.0380 c3        1 MOL      0.120016
    148 N13       -12.4850   -2.3000   -0.8520 n4        1 MOL     -0.262054
    149 H67        -6.9800   -2.4040    1.2640 hn        1 MOL      0.266246
    150 H68        -7.0460   -3.8510   -0.3880 h1        1 MOL     -0.023008
    151 H69        -8.2130   -3.1620   -2.2420 hc        1 MOL      0.138965
    152 H70        -7.5850   -1.4430   -2.1720 hc        1 MOL      0.138965
    153 H71        -8.8350   -1.0990   -0.1800 hc        1 MOL      0.015862
    154 H72        -9.3850   -2.8410   -0.1440 hc        1 MOL      0.015862
    155 H73       -10.4010   -2.3480   -2.4800 hc        1 MOL      0.059909
    156 H74       -10.0120   -0.6240   -2.2950 hc        1 MOL      0.059909
    157 H75       -12.0030   -0.4070   -1.5070 hx        1 MOL      0.023485
    158 H76       -11.2270   -0.8970   -0.0330 hx        1 MOL      0.023485
    159 H77       -13.1780   -2.0990   -0.1460 hn        1 MOL      0.214129
    160 H78       -12.9400   -2.4650   -1.7330 hn        1 MOL      0.214129
    161 H79       -12.1110   -3.1570   -0.4630 hn        1 MOL      0.214129
    162 N14        -4.3540   -3.7260   -0.9400 n         1 MOL     -0.409547
    163 C49        -2.9700   -3.8190   -1.5200 c3        1 MOL      0.340531
    164 C50        -1.9300   -3.1710   -0.5840 c         1 MOL      0.478568
    165 O22        -1.6130   -2.0270   -0.8750 o         1 MOL     -0.704751
    166 C51        -2.7370   -5.2990   -1.9690 c3        1 MOL     -0.126776
    167 C52        -3.5910   -5.6110   -3.3050 c3        1 MOL     -0.162159
    168 C53        -3.4240   -7.0980   -3.8240 c         1 MOL      0.674840
    169 O23        -4.3610   -7.8460   -3.6010 o         1 MOL     -0.629339
    170 O24        -2.3550   -7.3400   -4.4310 o         1 MOL     -0.629339
    171 H80        -4.4500   -4.1390   -0.0240 hn        1 MOL      0.254985
    172 H81        -2.9280   -3.2150   -2.4330 h1        1 MOL      0.067109
    173 H82        -3.1180   -6.0100   -1.2320 hc        1 MOL      0.054334
    174 H83        -1.6960   -5.4810   -2.2100 hc        1 MOL      0.054334
    175 H84        -3.2390   -4.8620   -4.0150 hc        1 MOL      0.021897
    176 H85        -4.6320   -5.4170   -3.0820 hc        1 MOL      0.021897
    177 N15        -1.2190   -3.8360    0.3190 n         1 MOL     -0.368376
    178 C54        -1.5900   -5.0390    0.9750 c3        1 MOL     -0.006352
    179 H86        -2.0920   -4.8000    1.9140 h1        1 MOL      0.026811
    180 H87        -2.2660   -5.6070    0.3370 h1        1 MOL      0.026811
    181 H88        -0.6990   -5.6310    1.1810 h1        1 MOL      0.026811
    182 H89        -0.4120   -3.3430    0.6530 hn        1 MOL      0.359659
    183 Ca1        -0.5820    0.3330   -0.7500 Ca        1 MOL      1.742705
    184 O25        -3.2350    0.7080   -1.4990 oh        1 MOL     -0.937207
    185 H90        -3.6460    0.3140   -2.2640 ho        1 MOL      0.450263
    186 H91        -3.9200    0.7050   -0.8350 ho        1 MOL      0.450263
    187 O26         1.3400   -0.9730   -1.9090 oh        1 MOL     -0.937207
    188 H92         1.5390   -1.0330   -2.8450 ho        1 MOL      0.450263
    189 H93         2.1880   -0.8770   -1.4880 ho        1 MOL      0.450263
@<TRIPOS>BOND
     1    1    2 1   
     2    1    4 1   
     3    1    5 1   
     4    1    6 1   
     5    2    3 2   
     6    2    7 1   
     7    7    8 1   
     8    7   15 1   
     9    8    9 1   
    10    8   11 1   
    11    8   16 1   
    12    9   10 2   
    13    9   19 1   
    14   11   12 1   
    15   11   17 1   
    16   11   18 1   
    17   12   13 1   
    18   12   14 1   
    19   19   20 1   
    20   19   28 1   
    21   20   21 1   
    22   20   23 1   
    23   20   29 1   
    24   21   22 2   
    25   21   41 1   
    26   23   24 1   
    27   23   30 1   
    28   23   31 1   
    29   24   25 1   
    30   24   32 1   
    31   24   33 1   
    32   25   26 1   
    33   25   34 1   
    34   25   35 1   
    35   26   27 1   
    36   26   36 1   
    37   26   37 1   
    38   27   38 1   
    39   27   39 1   
    40   27   40 1   
    41   41   42 1   
    42   41   49 1   
    43   42   43 1   
    44   42   45 1   
    45   42   50 1   
    46   43   44 2   
    47   43   53 1   
    48   45   46 1   
    49   45   51 1   
    50   45   52 1   
    51   46   47 1   
    52   46   48 1   
    53   53   54 1   
    54   53   57 1   
    55   54   55 1   
    56   54   58 1   
    57   54   59 1   
    58   55   56 2   
    59   55   60 1   
    60   60   61 1   
    61   60   68 1   
    62   61   62 1   
    63   61   64 1   
    64   61   69 1   
    65   62   63 2   
    66   62   72 1   
    67   64   65 1   
    68   64   70 1   
    69   64   71 1   
    70   65   66 1   
    71   65   67 1   
    72   72   73 1   
    73   72   76 1   
    74   73   74 1   
    75   73   77 1   
    76   73   78 1   
    77   74   75 2   
    78   74   79 1   
    79   79   80 1   
    80   79   86 1   
    81   80   81 1   
    82   80   83 1   
    83   80   87 1   
    84   81   82 2   
    85   81   93 1   
    86   83   84 1   
    87   83   85 1   
    88   83   88 1   
    89   84   90 1   
    90   84   91 1   
    91   84   92 1   
    92   85   89 1   
    93   93   94 1   
    94   93  101 1   
    95   94   95 1   
    96   94   97 1   
    97   94  102 1   
    98   95   96 2   
    99   95  112 1   
   100   97   98 1   
   101   97   99 1   
   102   97  103 1   
   103   98  100 1   
   104   98  104 1   
   105   98  105 1   
   106   99  106 1   
   107   99  107 1   
   108   99  108 1   
   109  100  109 1   
   110  100  110 1   
   111  100  111 1   
   112  112  113 1   
   113  112  119 1   
   114  113  114 1   
   115  113  116 1   
   116  113  120 1   
   117  114  115 2   
   118  114  126 1   
   119  116  117 1   
   120  116  118 1   
   121  116  121 1   
   122  117  123 1   
   123  117  124 1   
   124  117  125 1   
   125  118  122 1   
   126  126  127 1   
   127  126  133 1   
   128  127  128 1   
   129  127  130 1   
   130  127  134 1   
   131  128  129 2   
   132  128  140 1   
   133  130  131 1   
   134  130  132 1   
   135  130  135 1   
   136  131  137 1   
   137  131  138 1   
   138  131  139 1   
   139  132  136 1   
   140  140  141 1   
   141  140  149 1   
   142  141  142 1   
   143  141  144 1   
   144  141  150 1   
   145  142  143 2   
   146  142  162 1   
   147  144  145 1   
   148  144  151 1   
   149  144  152 1   
   150  145  146 1   
   151  145  153 1   
   152  145  154 1   
   153  146  147 1   
   154  146  155 1   
   155  146  156 1   
   156  147  148 1   
   157  147  157 1   
   158  147  158 1   
   159  148  159 1   
   160  148  160 1   
   161  148  161 1   
   162  162  163 1   
   163  162  171 1   
   164  163  164 1   
   165  163  166 1   
   166  163  172 1   
   167  164  165 2   
   168  164  177 1   
   169  166  167 1   
   170  166  173 1   
   171  166  174 1   
   172  167  168 1   
   173  167  175 1   
   174  167  176 1   
   175  168  169 1   
   176  168  170 1   
   177  177  178 1   
   178  177  182 1   
   179  178  179 1   
   180  178  180 1   
   181  178  181 1   
   182  184  185 1   
   183  184  186 1   
   184  187  188 1   
   185  187  189 1   
@<TRIPOS>SUBSTRUCTURE
     1 MOL         1 TEMP              0 ****  ****    0 ROOT
