@<TRIPOS>MOLECULE
MOL
  182   178     1     0     0
SMALL
resp


@<TRIPOS>ATOM
      1 C1          0.7430   -6.2880    4.8820 c3        1 MOL     -0.455389
      2 C2          0.7410   -5.3910    3.6480 c         1 MOL      0.772701
      3 O1         -0.2420   -5.3380    2.9100 o         1 MOL     -0.653910
      4 H1          0.7340   -7.3320    4.5720 hc        1 MOL      0.127609
      5 H2          1.6370   -6.0920    5.4740 hc        1 MOL      0.127609
      6 H3         -0.1430   -6.0810    5.4830 hc        1 MOL      0.127609
      7 N1          1.7920   -4.6000    3.5350 n         1 MOL     -0.587591
      8 C3          1.9830   -3.8000    2.2730 c3        1 MOL      0.062915
      9 C4          2.3640   -4.6850    1.0200 c         1 MOL      0.505874
     10 O2          3.2810   -5.4900    1.0460 o         1 MOL     -0.498616
     11 C5          3.1260   -2.8460    2.4970 c3        1 MOL     -0.164905
     12 C6          3.3350   -1.7420    1.4920 c         1 MOL      0.523811
     13 O3          3.7140   -0.5860    1.7770 o         1 MOL     -0.666997
     14 O4          3.1300   -1.9530    0.2870 o         1 MOL     -0.666997
     15 H4          2.5120   -4.6400    4.2350 hn        1 MOL      0.336017
     16 H5          1.0380   -3.2960    2.0700 h1        1 MOL      0.076337
     17 H6          4.0090   -3.4790    2.5210 hc        1 MOL      0.088820
     18 H7          3.0580   -2.4160    3.4970 hc        1 MOL      0.088820
     19 N2          1.5600   -4.5340   -0.0680 n         1 MOL     -0.356135
     20 C7          1.6670   -5.1820   -1.3810 c3        1 MOL     -0.090731
     21 C8          2.9160   -4.9140   -2.1880 c         1 MOL      0.513960
     22 O5          3.2990   -5.7600   -3.0310 o         1 MOL     -0.563333
     23 C9          0.3520   -4.8930   -2.0920 c3        1 MOL      0.034887
     24 C10        -0.7920   -5.6280   -1.4930 c3        1 MOL      0.021412
     25 C11        -1.9990   -5.4810   -2.3280 c3        1 MOL     -0.095946
     26 C12        -3.0570   -6.4730   -1.9390 c3        1 MOL      0.127489
     27 N3         -4.2610   -6.2900   -2.7180 n4        1 MOL     -0.282826
     28 H8          0.9180   -3.7720    0.0850 hn        1 MOL      0.292740
     29 H9          1.6920   -6.2070   -1.0050 h1        1 MOL      0.113071
     30 H10         0.4300   -5.1780   -3.1450 hc        1 MOL      0.017126
     31 H11         0.0980   -3.8310   -2.1190 hc        1 MOL      0.017126
     32 H12        -1.0610   -5.3580   -0.4650 hc        1 MOL      0.016179
     33 H13        -0.5230   -6.6840   -1.5860 hc        1 MOL      0.016179
     34 H14        -1.6480   -5.6620   -3.3340 hc        1 MOL      0.032601
     35 H15        -2.4410   -4.4960   -2.1710 hc        1 MOL      0.032601
     36 H16        -3.3120   -6.4040   -0.8810 hx        1 MOL      0.058711
     37 H17        -2.5990   -7.4520   -2.0950 hx        1 MOL      0.058711
     38 H18        -4.9310   -7.0050   -2.4700 hn        1 MOL      0.281345
     39 H19        -4.6690   -5.3830   -2.5300 hn        1 MOL      0.281345
     40 H20        -4.0230   -6.2890   -3.6960 hn        1 MOL      0.281345
     41 N4          3.5880   -3.7610   -1.9460 n         1 MOL     -0.157858
     42 C13         4.9290   -3.5450   -2.5320 c3        1 MOL      0.114083
     43 C14         6.0990   -3.3210   -1.4930 c         1 MOL      0.324432
     44 O6          7.2450   -3.5700   -1.8610 o         1 MOL     -0.530455
     45 C15         4.7810   -2.3380   -3.4700 c3        1 MOL     -0.619859
     46 C16         4.2640   -1.1020   -2.8430 c         1 MOL      1.094425
     47 O7          4.7640   -0.6630   -1.7850 o         1 MOL     -0.810778
     48 O8          3.2920   -0.4980   -3.3380 o         1 MOL     -0.810778
     49 H21         3.1650   -3.0990   -1.3040 hn        1 MOL     -0.009111
     50 H22         5.1370   -4.4620   -3.0800 h1        1 MOL      0.128911
     51 H23         4.1150   -2.6750   -4.2630 hc        1 MOL      0.150571
     52 H24         5.7640   -2.2310   -3.9350 hc        1 MOL      0.150571
     53 N5          5.7630   -2.8910   -0.2730 n         1 MOL      0.041036
     54 C17         6.6320   -2.5490    0.8300 c3        1 MOL     -0.281506
     55 C18         7.2730   -1.1660    0.8560 c         1 MOL      0.601332
     56 O9          8.1260   -0.9080    1.7580 o         1 MOL     -0.579775
     57 H25         4.7950   -2.6160   -0.1630 hn        1 MOL     -0.003033
     58 H26         7.4240   -3.2900    0.9130 h1        1 MOL      0.129627
     59 H27         5.9990   -2.7670    1.6960 h1        1 MOL      0.129627
     60 N6          6.8700   -0.2360   -0.0310 n         1 MOL     -0.349908
     61 C19         7.3660    1.1050    0.0010 c3        1 MOL      0.106090
     62 C20         6.1610    2.0730   -0.0950 c         1 MOL      0.454371
     63 O10         4.9810    1.7360   -0.1580 o         1 MOL     -0.358787
     64 C21         8.4320    1.2630   -1.0850 c3        1 MOL     -0.280738
     65 C22         7.8820    1.2440   -2.4680 c         1 MOL      0.602307
     66 N7          7.9840    0.2250   -3.3000 n         1 MOL     -0.733445
     67 O11         7.3220    2.2050   -2.9090 o         1 MOL     -0.533149
     68 H28         6.2190   -0.5220   -0.7410 hn        1 MOL      0.305727
     69 H29         7.9140    1.3360    0.9080 h1        1 MOL      0.084139
     70 H30         9.1830    0.4680   -1.0060 hc        1 MOL      0.084825
     71 H31         8.8970    2.2370   -0.9300 hc        1 MOL      0.084825
     72 H32         8.6230   -0.5080   -3.0040 hn        1 MOL      0.354884
     73 H33         7.5960    0.2750   -4.2290 hn        1 MOL      0.354884
     74 N8          6.4510    3.4030   -0.0540 n         1 MOL     -0.493225
     75 C23         5.5480    4.5240   -0.0530 c3        1 MOL     -0.057720
     76 C24         4.3510    4.4920    0.9550 c         1 MOL      0.498153
     77 O12         4.5430    4.2480    2.1790 o         1 MOL     -0.479329
     78 H34         7.4290    3.6510    0.0210 hn        1 MOL      0.337385
     79 H35         5.1630    4.7040   -1.0540 h1        1 MOL      0.083271
     80 H36         6.1380    5.4340    0.0440 h1        1 MOL      0.083271
     81 N9          3.1860    4.9000    0.4850 n         1 MOL     -0.445154
     82 C25         1.8380    4.8420    1.1240 c3        1 MOL     -0.088906
     83 C26         1.4650    3.3710    1.4550 c         1 MOL      0.742830
     84 O13         2.0290    2.4060    0.9580 o         1 MOL     -0.698181
     85 C27         0.7810    5.3360    0.1850 c3        1 MOL     -0.143463
     86 C28         0.9220    6.7910   -0.2540 ca        1 MOL      0.140299
     87 C29         1.6230    7.7530    0.5300 ca        1 MOL     -0.202190
     88 C30         0.2050    7.2020   -1.3600 ca        1 MOL     -0.202190
     89 C31         1.8950    9.0270   -0.0700 ca        1 MOL     -0.251268
     90 C32         0.3370    8.5260   -1.8550 ca        1 MOL     -0.251268
     91 C33         1.2810    9.4170   -1.2580 ca        1 MOL      0.329523
     92 O14         1.5280   10.6220   -1.7860 oh        1 MOL     -0.465234
     93 H37         3.2170    5.3260   -0.4320 hn        1 MOL      0.262768
     94 H38         1.8840    5.4310    2.0450 h1        1 MOL      0.111828
     95 H39        -0.2260    5.1360    0.5630 hc        1 MOL      0.063223
     96 H40         0.8710    4.7610   -0.7340 hc        1 MOL      0.063223
     97 H41         2.0750    7.5970    1.4950 ha        1 MOL      0.154813
     98 H42        -0.4660    6.5110   -1.8430 ha        1 MOL      0.154813
     99 H43         2.4580    9.8070    0.4200 ha        1 MOL      0.155561
    100 H44        -0.3490    8.9510   -2.5700 ha        1 MOL      0.155561
    101 H45         2.0160   11.2010   -1.2050 ho        1 MOL      0.367378
    102 N10         0.5310    3.2180    2.4250 n         1 MOL     -0.653600
    103 C34        -0.0500    1.9690    2.9440 c3        1 MOL      0.069179
    104 C35        -0.1230    0.7030    2.0070 c         1 MOL      0.594341
    105 O15         0.8400    0.2100    1.4190 o         1 MOL     -0.414589
    106 C36         0.4580    1.6600    4.3070 c3        1 MOL      0.157934
    107 C37         1.8930    1.1060    4.3110 c3        1 MOL      0.064653
    108 C38        -0.5050    0.6660    5.0210 c3        1 MOL     -0.302217
    109 C39         2.3110    0.9130    5.7650 c3        1 MOL     -0.339851
    110 H46         0.3280    4.0450    2.9650 hn        1 MOL      0.340933
    111 H47        -1.0460    2.3810    3.0870 h1        1 MOL      0.057811
    112 H48         0.4670    2.6300    4.8120 hc        1 MOL     -0.002364
    113 H49         2.4830    1.9460    3.9270 hc        1 MOL      0.051135
    114 H50         2.0150    0.2070    3.6990 hc        1 MOL      0.051135
    115 H51        -0.4020    0.6680    6.1050 hc        1 MOL      0.064143
    116 H52        -1.5290    0.9140    4.7460 hc        1 MOL      0.064143
    117 H53        -0.3460   -0.3540    4.6720 hc        1 MOL      0.064143
    118 H54         2.1080    1.7770    6.3990 hc        1 MOL      0.087532
    119 H55         1.7460    0.0430    6.1100 hc        1 MOL      0.087532
    120 H56         3.3910    0.8080    5.8820 hc        1 MOL      0.087532
    121 N11        -1.3460    0.2490    1.8250 n         1 MOL     -0.564352
    122 C40        -1.6190   -0.9880    1.1700 c3        1 MOL      0.328575
    123 C41        -3.0190   -1.0040    0.5530 c         1 MOL      0.599980
    124 O16        -3.5360   -1.9940    0.1320 o         1 MOL     -0.520628
    125 C42        -1.5280   -2.1780    2.1450 c3        1 MOL     -0.142805
    126 O17        -1.3750   -3.4430    1.4540 oh        1 MOL     -0.550022
    127 H57        -2.0370    0.7110    2.3980 hn        1 MOL      0.275048
    128 H58        -0.9300   -1.1460    0.3310 h1        1 MOL     -0.000713
    129 H59        -2.4650   -2.0730    2.6840 h1        1 MOL      0.089997
    130 H60        -0.6770   -1.9570    2.7960 h1        1 MOL      0.089997
    131 H61        -0.9890   -4.0610    2.0870 ho        1 MOL      0.459562
    132 N12        -3.7440    0.1400    0.5140 n         1 MOL     -0.765332
    133 C43        -5.1680    0.3120    0.1560 c3        1 MOL      0.511533
    134 C44        -5.4080    1.0670   -1.1830 c         1 MOL      0.489935
    135 O18        -4.5910    1.8500   -1.6100 o         1 MOL     -0.538866
    136 C45        -5.8260    0.8390    1.3830 c3        1 MOL     -0.202160
    137 H62        -3.2090    0.9780    0.6790 hn        1 MOL      0.259110
    138 H63        -5.5930   -0.6590   -0.0990 h1        1 MOL     -0.017205
    139 H64        -6.8880    0.6360    1.2650 hc        1 MOL      0.044324
    140 H65        -5.4820    0.3220    2.2920 hc        1 MOL      0.044324
    141 H66        -5.6080    1.9000    1.4320 hc        1 MOL      0.044324
    142 N13        -6.4970    0.9020   -2.0030 n         1 MOL     -0.626720
    143 C46        -7.5750   -0.0570   -1.7480 c3        1 MOL      0.312227
    144 C47        -8.8910    0.4400   -2.2190 c         1 MOL      0.429550
    145 O19        -9.0040    1.1870   -3.2190 o         1 MOL     -0.526826
    146 C48        -7.1740   -1.3810   -2.3500 c3        1 MOL     -0.347970
    147 H67        -6.2490    1.0210   -2.9730 hn        1 MOL      0.359828
    148 H68        -7.5860   -0.2730   -0.6790 h1        1 MOL      0.033281
    149 H69        -6.7200   -1.2500   -3.3290 hc        1 MOL      0.084271
    150 H70        -6.4510   -1.8340   -1.6580 hc        1 MOL      0.084271
    151 H71        -8.0230   -2.0660   -2.2620 hc        1 MOL      0.084271
    152 N14       -10.0250    0.1380   -1.5260 n         1 MOL     -0.362079
    153 C49       -10.1750   -0.4050   -0.1530 c3        1 MOL     -0.297582
    154 C50        -9.6510    0.5130    1.0220 c         1 MOL      0.674010
    155 O20        -9.1640   -0.1250    1.9630 o         1 MOL     -0.583098
    156 C51       -11.5550   -0.9230    0.0440 c3        1 MOL      0.070274
    157 C52       -12.6950   -0.0620    0.4840 c3        1 MOL     -0.132758
    158 C53       -13.3170    0.7400   -0.7060 c         1 MOL      0.652913
    159 O21       -12.6070    1.6240   -1.2730 o         1 MOL     -0.650739
    160 O22       -14.4920    0.5050   -1.1320 o         1 MOL     -0.650739
    161 H72       -10.8610    0.5400   -1.9410 hn        1 MOL      0.280544
    162 H73        -9.5020   -1.2530   -0.1150 h1        1 MOL      0.115681
    163 H74       -11.3290   -1.6560    0.8320 hc        1 MOL      0.019802
    164 H75       -11.8480   -1.5370   -0.8020 hc        1 MOL      0.019802
    165 H76       -12.4450    0.5480    1.3480 hc        1 MOL      0.011791
    166 H77       -13.4940   -0.7090    0.8380 hc        1 MOL      0.011791
    167 N15        -9.7290    1.7950    0.9670 n         1 MOL     -0.304625
    168 C54        -9.1970    2.7400    1.9770 c3        1 MOL     -0.221526
    169 H78        -9.5410    3.7490    1.7470 h1        1 MOL      0.108995
    170 H79        -9.5520    2.4530    2.9670 h1        1 MOL      0.108995
    171 H80        -8.1080    2.7170    1.9590 h1        1 MOL      0.108995
    172 H81       -10.0810    2.2130    0.1190 hn        1 MOL      0.253851
    173 Ca1         2.7210    0.5140   -0.6950 Ca        1 MOL      1.750059
    174 O23         3.5690    2.3030   -2.8600 oh        1 MOL     -0.834632
    175 H82         3.8310    3.2200   -2.8550 ho        1 MOL      0.409063
    176 H83         3.1560    2.1660   -3.7090 ho        1 MOL      0.409063
    177 O24         0.6910   -1.3440   -1.6150 oh        1 MOL     -0.834632
    178 H84        -0.1500   -0.9500   -1.8330 ho        1 MOL      0.409063
    179 H85         1.0850   -1.5550   -2.4540 ho        1 MOL      0.409063
    180 O25         0.5750    2.0060   -1.6910 oh        1 MOL     -0.834632
    181 H86        -0.3420    2.1030   -1.4330 ho        1 MOL      0.409063
    182 H87         0.6750    2.5610   -2.4590 ho        1 MOL      0.409063
@<TRIPOS>BOND
     1    1    2 1   
     2    1    4 1   
     3    1    5 1   
     4    1    6 1   
     5    2    3 2   
     6    2    7 1   
     7    7    8 1   
     8    7   15 1   
     9    8    9 1   
    10    8   11 1   
    11    8   16 1   
    12    9   10 2   
    13    9   19 1   
    14   11   12 1   
    15   11   17 1   
    16   11   18 1   
    17   12   13 1   
    18   12   14 1   
    19   19   20 1   
    20   19   28 1   
    21   20   21 1   
    22   20   23 1   
    23   20   29 1   
    24   21   22 2   
    25   21   41 1   
    26   23   24 1   
    27   23   30 1   
    28   23   31 1   
    29   24   25 1   
    30   24   32 1   
    31   24   33 1   
    32   25   26 1   
    33   25   34 1   
    34   25   35 1   
    35   26   27 1   
    36   26   36 1   
    37   26   37 1   
    38   27   38 1   
    39   27   39 1   
    40   27   40 1   
    41   41   42 1   
    42   41   49 1   
    43   42   43 1   
    44   42   45 1   
    45   42   50 1   
    46   43   44 2   
    47   43   53 1   
    48   45   46 1   
    49   45   51 1   
    50   45   52 1   
    51   46   47 1   
    52   46   48 1   
    53   53   54 1   
    54   53   57 1   
    55   54   55 1   
    56   54   58 1   
    57   54   59 1   
    58   55   56 2   
    59   55   60 1   
    60   60   61 1   
    61   60   68 1   
    62   61   62 1   
    63   61   64 1   
    64   61   69 1   
    65   62   63 2   
    66   62   74 1   
    67   64   65 1   
    68   64   70 1   
    69   64   71 1   
    70   65   66 1   
    71   65   67 2   
    72   66   72 1   
    73   66   73 1   
    74   74   75 1   
    75   74   78 1   
    76   75   76 1   
    77   75   79 1   
    78   75   80 1   
    79   76   77 2   
    80   76   81 1   
    81   81   82 1   
    82   81   93 1   
    83   82   83 1   
    84   82   85 1   
    85   82   94 1   
    86   83   84 2   
    87   83  102 1   
    88   85   86 1   
    89   85   95 1   
    90   85   96 1   
    91   86   87 ar  
    92   86   88 ar  
    93   87   89 ar  
    94   87   97 1   
    95   88   90 ar  
    96   88   98 1   
    97   89   91 ar  
    98   89   99 1   
    99   90   91 ar  
   100   90  100 1   
   101   91   92 1   
   102   92  101 1   
   103  102  103 1   
   104  102  110 1   
   105  103  104 1   
   106  103  106 1   
   107  103  111 1   
   108  104  105 2   
   109  104  121 1   
   110  106  107 1   
   111  106  108 1   
   112  106  112 1   
   113  107  109 1   
   114  107  113 1   
   115  107  114 1   
   116  108  115 1   
   117  108  116 1   
   118  108  117 1   
   119  109  118 1   
   120  109  119 1   
   121  109  120 1   
   122  121  122 1   
   123  121  127 1   
   124  122  123 1   
   125  122  125 1   
   126  122  128 1   
   127  123  124 2   
   128  123  132 1   
   129  125  126 1   
   130  125  129 1   
   131  125  130 1   
   132  126  131 1   
   133  132  133 1   
   134  132  137 1   
   135  133  134 1   
   136  133  136 1   
   137  133  138 1   
   138  134  135 2   
   139  134  142 1   
   140  136  139 1   
   141  136  140 1   
   142  136  141 1   
   143  142  143 1   
   144  142  147 1   
   145  143  144 1   
   146  143  146 1   
   147  143  148 1   
   148  144  145 2   
   149  144  152 1   
   150  146  149 1   
   151  146  150 1   
   152  146  151 1   
   153  152  153 1   
   154  152  161 1   
   155  153  154 1   
   156  153  156 1   
   157  153  162 1   
   158  154  155 2   
   159  154  167 1   
   160  156  157 1   
   161  156  163 1   
   162  156  164 1   
   163  157  158 1   
   164  157  165 1   
   165  157  166 1   
   166  158  159 1   
   167  158  160 1   
   168  167  168 1   
   169  167  172 1   
   170  168  169 1   
   171  168  170 1   
   172  168  171 1   
   173  174  175 1   
   174  174  176 1   
   175  177  178 1   
   176  177  179 1   
   177  180  181 1   
   178  180  182 1   
@<TRIPOS>SUBSTRUCTURE
     1 MOL         1 TEMP              0 ****  ****    0 ROOT
