@<TRIPOS>MOLECULE
MOL
  188   182     1     0     0
SMALL
resp


@<TRIPOS>ATOM
      1 C1         -4.4980    2.0850   -2.9530 c3        1 MOL     -0.386175
      2 C2         -5.6990    1.8430   -2.0130 c         1 MOL      0.574225
      3 O1         -5.5090    1.2420   -0.9320 o         1 MOL     -0.514637
      4 H1         -3.6220    1.5660   -2.5630 hc        1 MOL      0.098035
      5 H2         -4.7310    1.7060   -3.9480 hc        1 MOL      0.098035
      6 H3         -4.2900    3.1540   -3.0100 hc        1 MOL      0.098035
      7 N1         -6.9330    2.1660   -2.4150 n         1 MOL     -0.454657
      8 C3         -8.2470    1.8290   -1.7470 c3        1 MOL      0.034872
      9 C4         -8.3620    0.3240   -1.4160 c         1 MOL      0.400112
     10 O2         -9.0660   -0.1020   -0.4690 o         1 MOL     -0.428551
     11 C5         -8.6020    2.8710   -0.7000 c3        1 MOL     -0.125538
     12 C6        -10.0290    2.6890   -0.1870 c         1 MOL      0.707696
     13 O3        -10.1930    2.3650    1.0060 o         1 MOL     -0.688985
     14 O4        -10.9340    3.0700   -0.9490 o         1 MOL     -0.688985
     15 H4         -6.9790    2.5710   -3.3360 hn        1 MOL      0.284228
     16 H5         -8.9920    1.9210   -2.5290 h1        1 MOL     -0.010318
     17 H6         -8.5050    3.8310   -1.1930 hc        1 MOL      0.048759
     18 H7         -7.8980    3.0000    0.1280 hc        1 MOL      0.048759
     19 N2         -7.7990   -0.5740   -2.2340 n         1 MOL     -0.227768
     20 C7         -7.9890   -2.0410   -2.1760 c3        1 MOL     -0.028390
     21 C8         -6.9260   -2.7570   -1.2640 c         1 MOL      0.556316
     22 O5         -6.6630   -3.9420   -1.3180 o         1 MOL     -0.558439
     23 C9         -7.9490   -2.5290   -3.5940 c3        1 MOL     -0.055722
     24 C10        -9.1690   -2.0380   -4.4310 c3        1 MOL      0.023644
     25 C11       -10.5830   -2.5470   -3.9700 c3        1 MOL     -0.031438
     26 C12       -11.7460   -2.0210   -4.8610 c3        1 MOL      0.010937
     27 N3        -11.8200   -0.4950   -4.7640 n4        1 MOL     -0.370211
     28 H8         -7.0850   -0.2380   -2.8700 hn        1 MOL      0.174521
     29 H9         -8.9820   -2.2630   -1.8110 h1        1 MOL      0.054228
     30 H10        -7.8140   -3.6070   -3.6860 hc        1 MOL      0.059374
     31 H11        -7.0690   -2.1640   -4.1210 hc        1 MOL      0.059374
     32 H12        -8.9330   -2.2860   -5.4710 hc        1 MOL     -0.028925
     33 H13        -9.2320   -0.9440   -4.4290 hc        1 MOL     -0.028925
     34 H14       -10.6890   -2.2000   -2.9400 hc        1 MOL      0.064804
     35 H15       -10.5670   -3.6380   -4.0010 hc        1 MOL      0.064804
     36 H16       -12.6150   -2.5890   -4.5370 hx        1 MOL      0.088212
     37 H17       -11.5800   -2.3470   -5.8890 hx        1 MOL      0.088212
     38 H18       -12.5780   -0.1550   -5.3350 hn        1 MOL      0.312402
     39 H19       -12.0040   -0.2320   -3.8150 hn        1 MOL      0.312402
     40 H20       -10.9820   -0.0740   -5.1340 hn        1 MOL      0.312402
     41 N4         -6.2000   -1.9670   -0.4860 n         1 MOL     -0.450400
     42 C13        -5.0530   -2.3710    0.3580 c3        1 MOL      0.249550
     43 C14        -5.2710   -1.9760    1.8410 c         1 MOL      0.407001
     44 O6         -5.9910   -0.9890    2.0870 o         1 MOL     -0.436332
     45 C15        -3.6950   -1.8810   -0.2110 c3        1 MOL     -0.128437
     46 C16        -2.5260   -2.5100    0.5740 c         1 MOL      0.605884
     47 O7         -2.0810   -1.9240    1.6020 o         1 MOL     -0.651007
     48 O8         -1.8660   -3.4600    0.0890 o         1 MOL     -0.651007
     49 H21        -6.4500   -0.9880   -0.4980 hn        1 MOL      0.233613
     50 H22        -4.9650   -3.4560    0.3140 h1        1 MOL      0.010640
     51 H23        -3.6920   -0.7990   -0.1010 hc        1 MOL      0.050196
     52 H24        -3.6100   -2.2470   -1.2390 hc        1 MOL      0.050196
     53 N5         -4.7470   -2.7050    2.8580 n         1 MOL     -0.373155
     54 C17        -4.6720   -2.5760    4.3020 c3        1 MOL     -0.152580
     55 C18        -3.8390   -1.3900    4.8340 c         1 MOL      0.589645
     56 O9         -3.9400   -1.0410    5.9800 o         1 MOL     -0.585942
     57 H25        -4.2390   -3.5410    2.5820 hn        1 MOL      0.258478
     58 H26        -4.2150   -3.4050    4.8560 h1        1 MOL      0.104143
     59 H27        -5.6760   -2.5660    4.7140 h1        1 MOL      0.104143
     60 N6         -3.0660   -0.6920    4.0080 n         1 MOL     -0.187907
     61 C19        -2.4150    0.6050    4.2940 c3        1 MOL     -0.090050
     62 C20        -2.0160    1.4860    3.0690 c         1 MOL      0.368207
     63 O10        -1.6350    2.6430    3.3570 o         1 MOL     -0.475788
     64 C21        -1.3000    0.3940    5.3410 c3        1 MOL     -0.108199
     65 C22        -0.1110   -0.2860    4.7060 c         1 MOL      0.715148
     66 N7          1.0170   -0.1360    5.3040 n         1 MOL     -0.712250
     67 O11        -0.2640   -1.0940    3.7930 o         1 MOL     -0.689041
     68 H28        -2.8830   -1.0440    3.0740 hn        1 MOL      0.034003
     69 H29        -3.1770    1.2300    4.7640 h1        1 MOL      0.136905
     70 H30        -1.6060   -0.2780    6.1410 hc        1 MOL      0.060750
     71 H31        -1.0810    1.3460    5.8130 hc        1 MOL      0.060750
     72 H32         1.0000    0.3810    6.1720 hn        1 MOL      0.334045
     73 H33         1.8320   -0.6160    4.9470 hn        1 MOL      0.334045
     74 N8         -1.8980    1.0040    1.8170 n         1 MOL     -0.100617
     75 C23        -1.4760    1.8010    0.6610 c3        1 MOL     -0.445521
     76 C24        -0.0080    2.3250    0.6220 c         1 MOL      0.691193
     77 O12         0.8870    1.7710    1.2530 o         1 MOL     -0.549666
     78 H34        -2.0320    0.0430    1.5380 hn        1 MOL      0.293459
     79 H35        -2.1100    2.6960    0.6610 h1        1 MOL      0.173267
     80 H36        -1.6930    1.2800   -0.2700 h1        1 MOL      0.173267
     81 N9          0.2060    3.4690   -0.0960 n         1 MOL     -0.622775
     82 C25         1.4960    4.0570   -0.3250 c3        1 MOL      0.547368
     83 C26         2.4900    3.1890   -1.1220 c         1 MOL      0.318746
     84 O13         2.1050    2.1070   -1.5480 o         1 MOL     -0.482408
     85 C27         1.3280    5.4560   -0.9380 c3        1 MOL     -0.234353
     86 C28         0.4870    6.4400   -0.1630 ca        1 MOL      0.036894
     87 C29         0.2700    6.4330    1.2260 ca        1 MOL     -0.159962
     88 C30        -0.3710    7.2580   -0.9590 ca        1 MOL     -0.159962
     89 C31        -0.5700    7.2640    1.8660 ca        1 MOL     -0.245217
     90 C32        -1.3240    8.1140   -0.3100 ca        1 MOL     -0.245217
     91 C33        -1.4120    8.1010    1.0990 ca        1 MOL      0.312974
     92 O14        -2.2060    8.9990    1.7580 oh        1 MOL     -0.428790
     93 H37        -0.5990    3.9450   -0.4820 hn        1 MOL      0.307567
     94 H38         2.0210    4.1640    0.6320 h1        1 MOL     -0.018111
     95 H39         0.9530    5.3680   -1.9630 hc        1 MOL      0.057256
     96 H40         2.3230    5.8560   -1.1130 hc        1 MOL      0.057256
     97 H41         0.8850    5.7890    1.8530 ha        1 MOL      0.130454
     98 H42        -0.3490    7.3160   -2.0330 ha        1 MOL      0.130454
     99 H43        -0.6350    7.2810    2.9440 ha        1 MOL      0.159486
    100 H44        -1.8540    8.8380   -0.9070 ha        1 MOL      0.159486
    101 H45        -2.7140    9.4880    1.1060 ho        1 MOL      0.325804
    102 N10         3.7820    3.5830   -1.1900 n         1 MOL     -0.550900
    103 C34         4.7450    2.7360   -1.8410 c3        1 MOL      0.450776
    104 C35         5.8190    2.2280   -0.9660 c         1 MOL      0.537933
    105 O15         5.9400    1.0100   -0.7790 o         1 MOL     -0.551073
    106 C36         5.3820    3.3940   -3.0730 c3        1 MOL     -0.046817
    107 C37         4.3650    3.8480   -4.2080 c3        1 MOL      0.259184
    108 C38         6.3590    2.4080   -3.7350 c3        1 MOL     -0.363017
    109 C39         3.6750    2.7350   -4.9830 c3        1 MOL     -0.130811
    110 H46         4.1030    4.4830   -0.8570 hn        1 MOL      0.233586
    111 H47         4.2610    1.8340   -2.2270 h1        1 MOL      0.005060
    112 H48         5.8720    4.3040   -2.7300 hc        1 MOL     -0.061223
    113 H49         4.8620    4.4990   -4.9230 hc        1 MOL     -0.060512
    114 H50         3.6400    4.5180   -3.7250 hc        1 MOL     -0.060512
    115 H51         6.6160    2.7890   -4.7210 hc        1 MOL      0.094204
    116 H52         7.2740    2.2850   -3.1610 hc        1 MOL      0.094204
    117 H53         5.8870    1.4440   -3.9020 hc        1 MOL      0.094204
    118 H54         3.1550    2.0610   -4.3160 hc        1 MOL      0.033544
    119 H55         2.9630    3.2530   -5.6200 hc        1 MOL      0.033544
    120 H56         4.3120    2.1690   -5.6540 hc        1 MOL      0.033544
    121 N11         6.4630    3.0730   -0.1840 n         1 MOL     -0.468353
    122 C40         7.2740    2.7710    1.0350 c3        1 MOL      0.109470
    123 C41         8.5260    1.8290    0.7250 c         1 MOL      0.192042
    124 O16         8.9420    1.0950    1.6450 o         1 MOL     -0.453974
    125 C42         7.6550    4.0520    1.8340 c3        1 MOL      0.078617
    126 O17         6.4390    4.5160    2.4740 oh        1 MOL     -0.604193
    127 H57         6.3590    4.0380   -0.4550 hn        1 MOL      0.301507
    128 H58         6.6040    2.2070    1.6800 h1        1 MOL      0.147774
    129 H59         8.0210    4.8240    1.1700 h1        1 MOL      0.057278
    130 H60         8.4030    3.8620    2.6020 h1        1 MOL      0.057278
    131 H61         6.7140    5.2570    3.0140 ho        1 MOL      0.413719
    132 N12         9.0500    1.8550   -0.4680 n         1 MOL     -0.161232
    133 C43         9.9500    0.8340   -1.0780 c3        1 MOL      0.230882
    134 C44         9.5290   -0.6300   -0.8750 c         1 MOL      0.602264
    135 O18        10.3220   -1.5820   -0.9200 o         1 MOL     -0.561987
    136 C45        11.4150    1.1980   -0.6930 c3        1 MOL     -0.572537
    137 H62         8.6610    2.6550   -0.9310 hn        1 MOL      0.166631
    138 H63         9.9000    0.9750   -2.1540 h1        1 MOL      0.051776
    139 H64        12.0400    0.3090   -0.7800 hc        1 MOL      0.159150
    140 H65        11.6230    2.0050   -1.3890 hc        1 MOL      0.159150
    141 H66        11.5010    1.5110    0.3420 hc        1 MOL      0.159150
    142 N13         8.2370   -0.8260   -0.8420 n         1 MOL     -0.693905
    143 C46         7.5960   -1.9600   -0.3340 c3        1 MOL      0.673323
    144 C47         6.7510   -2.7150   -1.3600 c         1 MOL      0.359976
    145 O19         6.1740   -2.1100   -2.2650 o         1 MOL     -0.443501
    146 C48         6.8500   -1.6410    0.9600 c3        1 MOL     -0.173737
    147 H67         7.5770   -0.0610   -0.9340 hn        1 MOL      0.186726
    148 H68         8.3780   -2.6580   -0.0350 h1        1 MOL     -0.085616
    149 H69         6.6760   -2.5770    1.4980 hc        1 MOL      0.031246
    150 H70         7.4660   -1.0280    1.6160 hc        1 MOL      0.031246
    151 H71         5.8740   -1.2130    0.7210 hc        1 MOL      0.031246
    152 N14         6.6030   -3.9950   -1.0450 n         1 MOL     -0.513187
    153 C49         5.8130   -5.0180   -1.7650 c3        1 MOL      0.008061
    154 C50         6.1440   -5.1980   -3.2200 c         1 MOL      0.522428
    155 O20         5.3440   -5.7630   -3.9370 o         1 MOL     -0.489244
    156 C51         4.3200   -4.8210   -1.4960 c3        1 MOL      0.209249
    157 C52         4.0320   -4.6670    0.0150 c3        1 MOL     -0.106144
    158 C53         2.6070   -4.9960    0.2340 c         1 MOL      0.738763
    159 O21         2.2550   -6.2180    0.3360 o         1 MOL     -0.742898
    160 O22         1.7890   -4.1220    0.5510 o         1 MOL     -0.742898
    161 H72         7.1780   -4.2380   -0.2540 hn        1 MOL      0.285304
    162 H73         6.0280   -5.9930   -1.3400 h1        1 MOL      0.084185
    163 H74         3.7590   -5.6510   -1.9250 hc        1 MOL     -0.012099
    164 H75         4.0610   -3.8810   -1.9700 hc        1 MOL     -0.012099
    165 H76         4.2460   -3.6540    0.3740 hc        1 MOL     -0.019745
    166 H77         4.6790   -5.2930    0.6320 hc        1 MOL     -0.019745
    167 N15         7.3720   -4.7980   -3.7090 n         1 MOL     -0.509297
    168 C54         7.5230   -4.3390   -5.1210 c3        1 MOL      0.046285
    169 H78         7.3730   -3.2600   -5.1700 h1        1 MOL      0.046908
    170 H79         8.5230   -4.5830   -5.4780 h1        1 MOL      0.046908
    171 H80         6.7810   -4.8360   -5.7460 h1        1 MOL      0.046908
    172 H81         8.0740   -4.3570   -3.1380 hn        1 MOL      0.288806
    173 Ca1         0.0210   -3.1990    2.2220 Ca        1 MOL      1.807382
    174 O23        -1.9590   -4.9690    3.3330 oh        1 MOL     -0.864477
    175 H82        -2.7960   -5.3070    3.0080 ho        1 MOL      0.418792
    176 H83        -1.7820   -5.4760    4.1230 ho        1 MOL      0.418792
    177 O24        -0.1680   -5.8290    1.5530 oh        1 MOL     -0.864477
    178 O25         2.5430   -2.5370    2.9530 oh        1 MOL     -0.864477
    179 H84        -0.5470   -6.6470    1.8710 ho        1 MOL      0.418792
    180 H85         3.3060   -2.7250    2.4110 ho        1 MOL      0.418792
    181 H86         0.7000   -6.0750    1.2210 ho        1 MOL      0.418792
    182 H87         2.8520   -1.8610    3.5580 ho        1 MOL      0.418792
    183 O26         0.5340   -4.2150    4.7160 oh        1 MOL     -0.864477
    184 H88         0.1660   -4.7320    5.4320 ho        1 MOL      0.418792
    185 H89         1.2670   -3.7370    5.1230 ho        1 MOL      0.418792
    186 O27         0.8330   -1.1470    0.8230 oh        1 MOL     -0.864477
    187 H90         1.6040   -1.4190    0.3170 ho        1 MOL      0.418792
    188 H91         0.9250   -0.2010    0.9010 ho        1 MOL      0.418792
@<TRIPOS>BOND
     1    1    2 1   
     2    1    4 1   
     3    1    5 1   
     4    1    6 1   
     5    2    3 2   
     6    2    7 1   
     7    7    8 1   
     8    7   15 1   
     9    8    9 1   
    10    8   11 1   
    11    8   16 1   
    12    9   10 2   
    13    9   19 1   
    14   11   12 1   
    15   11   17 1   
    16   11   18 1   
    17   12   13 1   
    18   12   14 1   
    19   19   20 1   
    20   19   28 1   
    21   20   21 1   
    22   20   23 1   
    23   20   29 1   
    24   21   22 2   
    25   21   41 1   
    26   23   24 1   
    27   23   30 1   
    28   23   31 1   
    29   24   25 1   
    30   24   32 1   
    31   24   33 1   
    32   25   26 1   
    33   25   34 1   
    34   25   35 1   
    35   26   27 1   
    36   26   36 1   
    37   26   37 1   
    38   27   38 1   
    39   27   39 1   
    40   27   40 1   
    41   41   42 1   
    42   41   49 1   
    43   42   43 1   
    44   42   45 1   
    45   42   50 1   
    46   43   44 2   
    47   43   53 1   
    48   45   46 1   
    49   45   51 1   
    50   45   52 1   
    51   46   47 1   
    52   46   48 1   
    53   53   54 1   
    54   53   57 1   
    55   54   55 1   
    56   54   58 1   
    57   54   59 1   
    58   55   56 2   
    59   55   60 1   
    60   60   61 1   
    61   60   68 1   
    62   61   62 1   
    63   61   64 1   
    64   61   69 1   
    65   62   63 2   
    66   62   74 1   
    67   64   65 1   
    68   64   70 1   
    69   64   71 1   
    70   65   66 1   
    71   65   67 2   
    72   66   72 1   
    73   66   73 1   
    74   74   75 1   
    75   74   78 1   
    76   75   76 1   
    77   75   79 1   
    78   75   80 1   
    79   76   77 2   
    80   76   81 1   
    81   81   82 1   
    82   81   93 1   
    83   82   83 1   
    84   82   85 1   
    85   82   94 1   
    86   83   84 2   
    87   83  102 1   
    88   85   86 1   
    89   85   95 1   
    90   85   96 1   
    91   86   87 ar  
    92   86   88 ar  
    93   87   89 ar  
    94   87   97 1   
    95   88   90 ar  
    96   88   98 1   
    97   89   91 ar  
    98   89   99 1   
    99   90   91 ar  
   100   90  100 1   
   101   91   92 1   
   102   92  101 1   
   103  102  103 1   
   104  102  110 1   
   105  103  104 1   
   106  103  106 1   
   107  103  111 1   
   108  104  105 2   
   109  104  121 1   
   110  106  107 1   
   111  106  108 1   
   112  106  112 1   
   113  107  109 1   
   114  107  113 1   
   115  107  114 1   
   116  108  115 1   
   117  108  116 1   
   118  108  117 1   
   119  109  118 1   
   120  109  119 1   
   121  109  120 1   
   122  121  122 1   
   123  121  127 1   
   124  122  123 1   
   125  122  125 1   
   126  122  128 1   
   127  123  124 2   
   128  123  132 1   
   129  125  126 1   
   130  125  129 1   
   131  125  130 1   
   132  126  131 1   
   133  132  133 1   
   134  132  137 1   
   135  133  134 1   
   136  133  136 1   
   137  133  138 1   
   138  134  135 2   
   139  134  142 1   
   140  136  139 1   
   141  136  140 1   
   142  136  141 1   
   143  142  143 1   
   144  142  147 1   
   145  143  144 1   
   146  143  146 1   
   147  143  148 1   
   148  144  145 2   
   149  144  152 1   
   150  146  149 1   
   151  146  150 1   
   152  146  151 1   
   153  152  153 1   
   154  152  161 1   
   155  153  154 1   
   156  153  156 1   
   157  153  162 1   
   158  154  155 2   
   159  154  167 1   
   160  156  157 1   
   161  156  163 1   
   162  156  164 1   
   163  157  158 1   
   164  157  165 1   
   165  157  166 1   
   166  158  159 1   
   167  158  160 1   
   168  167  168 1   
   169  167  172 1   
   170  168  169 1   
   171  168  170 1   
   172  168  171 1   
   173  174  175 1   
   174  174  176 1   
   175  177  179 1   
   176  177  181 1   
   177  178  180 1   
   178  178  182 1   
   179  183  184 1   
   180  183  185 1   
   181  186  187 1   
   182  186  188 1   
@<TRIPOS>SUBSTRUCTURE
     1 MOL         1 TEMP              0 ****  ****    0 ROOT
