@<TRIPOS>MOLECULE
MOL
  181   177     1     0     0
SMALL
resp


@<TRIPOS>ATOM
      1 C1         -8.1110   -5.3430   -4.9100 c3        1 MOL     -0.398043
      2 C2         -6.9940   -4.4410   -4.2870 c         1 MOL      0.746713
      3 O1         -5.9780   -4.1420   -4.9830 o         1 MOL     -0.581555
      4 H1         -7.6870   -5.9390   -5.7190 hc        1 MOL      0.098668
      5 H2         -8.5130   -6.0050   -4.1440 hc        1 MOL      0.098668
      6 H3         -8.9090   -4.7150   -5.3030 hc        1 MOL      0.098668
      7 N1         -7.1050   -4.0380   -2.9770 n         1 MOL     -0.785454
      8 C3         -8.1350   -4.2770   -1.9820 c3        1 MOL      0.487156
      9 C4         -7.4400   -4.3980   -0.6000 c         1 MOL      0.356190
     10 O2         -6.1960   -4.2850   -0.4710 o         1 MOL     -0.439314
     11 C5         -9.1450   -3.1100   -2.0450 c3        1 MOL     -0.301438
     12 C6         -8.5200   -1.6980   -1.7850 c         1 MOL      0.701970
     13 O3         -8.1800   -1.0100   -2.7670 o         1 MOL     -0.700368
     14 O4         -8.3690   -1.3290   -0.6380 o         1 MOL     -0.700368
     15 H4         -6.3450   -3.4210   -2.7500 hn        1 MOL      0.427124
     16 H5         -8.7000   -5.1830   -2.1980 h1        1 MOL     -0.056655
     17 H6         -9.8630   -3.2160   -1.2360 hc        1 MOL      0.030287
     18 H7         -9.6180   -3.0870   -3.0190 hc        1 MOL      0.030287
     19 N2         -8.3060   -4.3860    0.4200 n         1 MOL     -0.469161
     20 C7         -8.0930   -4.4040    1.9310 c3        1 MOL      0.086473
     21 C8         -7.0690   -3.3750    2.4810 c         1 MOL      0.444494
     22 O5         -6.8990   -3.3320    3.7370 o         1 MOL     -0.559498
     23 C9         -7.9250   -5.8230    2.4380 c3        1 MOL     -0.235302
     24 H8         -9.2430   -4.6210    0.1260 hn        1 MOL      0.281850
     25 H9         -9.0620   -4.0580    2.2780 h1        1 MOL      0.074606
     26 H10        -8.6870   -6.5810    2.2430 hc        1 MOL      0.078462
     27 H11        -7.1160   -6.3190    1.9220 hc        1 MOL      0.078462
     28 H12        -7.7790   -5.8260    3.5210 hc        1 MOL      0.078462
     29 N3         -6.4440   -2.4750    1.7020 n         1 MOL     -0.140831
     30 C10        -5.5430   -1.5130    2.2310 c3        1 MOL      0.088373
     31 C11        -6.1750   -0.0360    2.3500 c         1 MOL      0.350824
     32 O6         -7.1340    0.3050    1.6180 o         1 MOL     -0.487435
     33 C12        -4.3390   -1.3510    1.3710 c3        1 MOL     -0.094623
     34 C13        -4.6000   -1.1130   -0.1340 c         1 MOL      0.617211
     35 O7         -3.7160   -1.4700   -1.0050 o         1 MOL     -0.661027
     36 O8         -5.5680   -0.5440   -0.6180 o         1 MOL     -0.661027
     37 H13        -6.7350   -2.3030    0.7580 hn        1 MOL      0.122253
     38 H14        -5.1500   -1.7110    3.2210 h1        1 MOL      0.043590
     39 H15        -3.7360   -2.2520    1.4240 hc        1 MOL      0.046885
     40 H16        -3.6630   -0.5760    1.7260 hc        1 MOL      0.046885
     41 N4         -5.6000    0.7970    3.2020 n         1 MOL     -0.344270
     42 C14        -5.7660    2.2330    3.2230 c3        1 MOL     -0.238353
     43 C15        -5.1870    3.0360    2.0240 c         1 MOL      0.747721
     44 O9         -5.3030    2.4950    0.9180 o         1 MOL     -0.609294
     45 H17        -4.7300    0.5090    3.6200 hn        1 MOL      0.308772
     46 H18        -5.2240    2.5700    4.1020 h1        1 MOL      0.121422
     47 H19        -6.8170    2.5080    3.3020 h1        1 MOL      0.121422
     48 N5         -4.7570    4.2620    2.1830 n         1 MOL     -0.678965
     49 C16        -3.9650    5.0140    1.2250 c3        1 MOL      0.373767
     50 C17        -2.4360    5.0320    1.4580 c         1 MOL      0.588848
     51 O10        -1.9680    5.5640    2.5030 o         1 MOL     -0.535332
     52 C18        -4.5820    6.3620    1.1240 c3        1 MOL     -0.406524
     53 C19        -3.7820    7.3570    0.2360 c         1 MOL      0.727688
     54 N6         -3.2460    6.9790   -0.9060 n         1 MOL     -0.862813
     55 O11        -3.5810    8.5040    0.5880 o         1 MOL     -0.552851
     56 H20        -4.5980    4.6470    3.0990 hn        1 MOL      0.333338
     57 H21        -4.1540    4.6160    0.2300 h1        1 MOL     -0.105770
     58 H22        -4.5500    6.7840    2.1300 hc        1 MOL      0.102147
     59 H23        -5.5360    6.3530    0.5970 hc        1 MOL      0.102147
     60 H24        -3.2690    6.0180   -1.2100 hn        1 MOL      0.382322
     61 H25        -2.8510    7.6830   -1.5120 hn        1 MOL      0.382322
     62 N7         -1.6180    4.4890    0.5310 n         1 MOL     -0.569368
     63 C20        -0.1590    4.7710    0.4880 c3        1 MOL      0.042743
     64 C21         0.6440    3.7750    1.2690 c         1 MOL      0.617291
     65 O12         0.0630    2.8570    1.8810 o         1 MOL     -0.518159
     66 H26        -2.0230    3.8970   -0.1760 hn        1 MOL      0.347136
     67 H27         0.1010    5.8200    0.6800 h1        1 MOL      0.081151
     68 H28         0.1510    4.6540   -0.5450 h1        1 MOL      0.081151
     69 N8          1.9840    3.9530    1.4320 n         1 MOL     -0.611111
     70 C22         2.8350    4.9690    0.7470 c3        1 MOL      0.061098
     71 C23         3.1430    4.4990   -0.7210 c         1 MOL      0.344940
     72 O13         3.1700    5.2970   -1.5970 o         1 MOL     -0.517714
     73 C24         4.0590    5.1970    1.6030 c3        1 MOL      0.343276
     74 C25         3.8660    5.6140    3.0950 c3        1 MOL     -0.456765
     75 O14         4.7580    3.9280    1.6590 oh        1 MOL     -0.597877
     76 H29         2.5160    3.2700    1.9530 hn        1 MOL      0.335206
     77 H30         2.3700    5.9510    0.6870 h1        1 MOL      0.052705
     78 H31         4.7320    5.8620    1.0480 h1        1 MOL      0.030223
     79 H32         5.3870    3.9460    2.3840 ho        1 MOL      0.408767
     80 H33         4.7890    5.5500    3.6830 hc        1 MOL      0.123747
     81 H34         3.4520    6.6080    2.9740 hc        1 MOL      0.123747
     82 H35         3.2380    4.9510    3.6890 hc        1 MOL      0.123747
     83 N9          3.3560    3.2130   -0.8970 n         1 MOL     -0.071093
     84 C26         3.8720    2.4410   -2.0950 c3        1 MOL     -0.025377
     85 C27         5.0620    3.2650   -2.7940 c         1 MOL      0.577875
     86 O15         4.9540    3.7820   -3.9190 o         1 MOL     -0.573093
     87 C28         2.6160    2.1580   -2.9610 c3        1 MOL      0.098895
     88 C29         1.5930    1.3620   -2.1970 c3        1 MOL     -0.081136
     89 C30         2.9350    1.4620   -4.2490 c3        1 MOL     -0.305770
     90 C31         1.9480   -0.0990   -1.8890 c3        1 MOL     -0.070575
     91 H36         3.3230    2.6470   -0.0650 hn        1 MOL      0.170329
     92 H37         4.3360    1.4810   -1.8510 h1        1 MOL      0.077176
     93 H38         2.1830    3.1310   -3.1900 hc        1 MOL      0.006696
     94 H39         0.6640    1.3540   -2.7690 hc        1 MOL     -0.001445
     95 H40         1.2800    1.8340   -1.2640 hc        1 MOL     -0.001445
     96 H41         3.6890    1.9900   -4.8440 hc        1 MOL      0.080140
     97 H42         3.4750    0.5670   -3.9600 hc        1 MOL      0.080140
     98 H43         2.0450    1.2240   -4.8230 hc        1 MOL      0.080140
     99 H44         2.0570   -0.6740   -2.8030 hc        1 MOL      0.034621
    100 H45         2.8610   -0.2900   -1.3170 hc        1 MOL      0.034621
    101 H46         1.2510   -0.5140   -1.1690 hc        1 MOL      0.034621
    102 N10         6.2280    3.3950   -2.2070 n         1 MOL     -0.462212
    103 C32         6.7310    2.7390   -0.9880 c3        1 MOL      0.204234
    104 C33         7.0990    1.2240   -1.1420 c         1 MOL      0.541707
    105 O16         6.8620    0.6520   -2.1970 o         1 MOL     -0.513738
    106 C34         7.9560    3.5270   -0.4790 c3        1 MOL     -0.151060
    107 C35         9.1570    3.5540   -1.4700 c         1 MOL      0.735987
    108 O17         9.0260    3.8560   -2.6640 o         1 MOL     -0.714128
    109 O18        10.3060    3.4460   -0.9330 o         1 MOL     -0.714128
    110 H47         6.9210    3.9130   -2.7300 hn        1 MOL      0.298557
    111 H48         6.0150    2.8550   -0.1660 h1        1 MOL     -0.044202
    112 H49         8.2920    3.0890    0.4540 hc        1 MOL     -0.016186
    113 H50         7.6620    4.5550   -0.2450 hc        1 MOL     -0.016186
    114 N11         7.5930    0.5580   -0.0050 n         1 MOL     -0.758603
    115 C36         7.8740   -0.9510   -0.0270 c3        1 MOL      0.357146
    116 C37         7.9970   -1.4800    1.4450 c         1 MOL      0.373764
    117 O19         8.7230   -0.8530    2.2360 o         1 MOL     -0.523281
    118 C38         9.0290   -1.2180   -1.0550 c3        1 MOL     -0.145143
    119 C39         9.2440   -2.6920   -1.3960 ca        1 MOL      0.074132
    120 C40        10.0050   -3.5550   -0.6080 ca        1 MOL     -0.154935
    121 C41         8.4750   -3.2110   -2.4610 ca        1 MOL     -0.154935
    122 C42        10.0010   -5.0030   -0.8600 ca        1 MOL     -0.106348
    123 C43         8.5050   -4.5690   -2.7270 ca        1 MOL     -0.106348
    124 C44         9.2490   -5.4850   -1.8960 ca        1 MOL     -0.151755
    125 H51         7.8780    1.1330    0.7900 hn        1 MOL      0.391354
    126 H52         6.9710   -1.4040   -0.4350 h1        1 MOL      0.044374
    127 H53         9.9970   -0.9010   -0.6440 hc        1 MOL      0.069186
    128 H54         8.8270   -0.6570   -1.9680 hc        1 MOL      0.069186
    129 H55        10.6440   -3.1970    0.1820 ha        1 MOL      0.122890
    130 H56         7.8300   -2.5540   -3.0190 ha        1 MOL      0.122890
    131 H57        10.6110   -5.7010   -0.3060 ha        1 MOL      0.099490
    132 H58         7.9330   -4.9420   -3.5690 ha        1 MOL      0.099490
    133 H59         9.2430   -6.5400   -2.1130 ha        1 MOL      0.103272
    134 N12         7.4270   -2.6940    1.7380 n         1 MOL     -0.119142
    135 C45         6.6780   -3.5620    0.8350 c3        1 MOL      0.073328
    136 C46         5.2140   -3.1130    0.7130 c         1 MOL      0.505806
    137 O20         4.9280   -1.9720    0.3490 o         1 MOL     -0.545547
    138 C47         6.8080   -4.9580    1.3990 c3        1 MOL     -0.156642
    139 C48         7.0730   -4.6810    2.9160 c3        1 MOL      0.177480
    140 C49         7.5430   -3.2690    3.0880 c3        1 MOL     -0.101683
    141 H60         7.1620   -3.5770   -0.1400 h1        1 MOL      0.029864
    142 H61         5.9510   -5.5920    1.1850 hc        1 MOL      0.019718
    143 H62         7.7110   -5.3840    0.9900 hc        1 MOL      0.019718
    144 H63         6.1850   -4.8440    3.5210 hc        1 MOL     -0.028199
    145 H64         7.8230   -5.3440    3.3310 hc        1 MOL     -0.028199
    146 H65         6.9350   -2.6860    3.7850 h1        1 MOL      0.068500
    147 H66         8.5790   -3.2080    3.4410 h1        1 MOL      0.068500
    148 N13         4.2040   -4.0180    0.8650 n         1 MOL     -0.548469
    149 C50         2.7160   -3.6940    0.8660 c3        1 MOL      0.265937
    150 C51         1.7880   -4.5900   -0.0380 c         1 MOL      0.326354
    151 O21         0.6680   -4.8200    0.3400 o         1 MOL     -0.502703
    152 C52         2.2050   -3.7060    2.3230 c3        1 MOL     -0.144839
    153 C53         2.8500   -2.6860    3.2610 c3        1 MOL     -0.128176
    154 C54         2.7110   -3.2890    4.6590 c         1 MOL      0.640401
    155 O22         1.5860   -3.2170    5.2450 o         1 MOL     -0.681413
    156 O23         3.7560   -3.8310    5.1390 o         1 MOL     -0.681413
    157 H67         4.4960   -4.9370    1.1780 hn        1 MOL      0.324894
    158 H68         2.5530   -2.6860    0.4790 h1        1 MOL      0.082783
    159 H69         2.3900   -4.6970    2.7440 hc        1 MOL      0.068990
    160 H70         1.1360   -3.5170    2.2950 hc        1 MOL      0.068990
    161 H71         2.5080   -1.6580    3.1880 hc        1 MOL      0.025515
    162 H72         3.9280   -2.5980    3.0890 hc        1 MOL      0.025515
    163 N14         2.2710   -5.1130   -1.1550 n         1 MOL     -0.305090
    164 C55         3.4260   -4.9110   -2.0260 c3        1 MOL     -0.128451
    165 H73         3.0880   -4.8050   -3.0570 h1        1 MOL      0.076130
    166 H74         3.9560   -4.0090   -1.7240 h1        1 MOL      0.076130
    167 H75         4.0930   -5.7690   -1.9490 h1        1 MOL      0.076130
    168 H76         1.5520   -5.7220   -1.5370 hn        1 MOL      0.257479
    169 Ca1        -7.4210    1.1430   -0.8890 Ca        1 MOL      1.772257
    170 O24        -9.8900    1.6030   -1.7550 oh        1 MOL     -0.839863
    171 H77       -10.2380    1.7280   -2.6460 ho        1 MOL      0.405383
    172 H78       -10.6130    1.2310   -1.2630 ho        1 MOL      0.405383
    173 O25        -6.7030    3.6840   -1.1710 oh        1 MOL     -0.839863
    174 H79        -6.4990    4.4680   -0.6530 ho        1 MOL      0.405383
    175 H80        -6.7170    3.9960   -2.0770 ho        1 MOL      0.405383
    176 O26        -8.8870    2.5310    0.8530 oh        1 MOL     -0.839863
    177 H81        -9.4530    2.5220    1.6280 ho        1 MOL      0.405383
    178 H82        -8.9620    3.4270    0.5240 ho        1 MOL      0.405383
    179 O27        -6.3100    1.7450   -3.1880 oh        1 MOL     -0.839863
    180 H83        -5.3680    1.6240   -3.1040 ho        1 MOL      0.405383
    181 H84        -6.4090    2.4550   -3.8100 ho        1 MOL      0.405383
@<TRIPOS>BOND
     1    1    2 1   
     2    1    4 1   
     3    1    5 1   
     4    1    6 1   
     5    2    3 2   
     6    2    7 1   
     7    7    8 1   
     8    7   15 1   
     9    8    9 1   
    10    8   11 1   
    11    8   16 1   
    12    9   10 2   
    13    9   19 1   
    14   11   12 1   
    15   11   17 1   
    16   11   18 1   
    17   12   13 1   
    18   12   14 1   
    19   19   20 1   
    20   19   24 1   
    21   20   21 1   
    22   20   23 1   
    23   20   25 1   
    24   21   22 2   
    25   21   29 1   
    26   23   26 1   
    27   23   27 1   
    28   23   28 1   
    29   29   30 1   
    30   29   37 1   
    31   30   31 1   
    32   30   33 1   
    33   30   38 1   
    34   31   32 2   
    35   31   41 1   
    36   33   34 1   
    37   33   39 1   
    38   33   40 1   
    39   34   35 1   
    40   34   36 1   
    41   41   42 1   
    42   41   45 1   
    43   42   43 1   
    44   42   46 1   
    45   42   47 1   
    46   43   44 2   
    47   43   48 1   
    48   48   49 1   
    49   48   56 1   
    50   49   50 1   
    51   49   52 1   
    52   49   57 1   
    53   50   51 2   
    54   50   62 1   
    55   52   53 1   
    56   52   58 1   
    57   52   59 1   
    58   53   54 1   
    59   53   55 2   
    60   54   60 1   
    61   54   61 1   
    62   62   63 1   
    63   62   66 1   
    64   63   64 1   
    65   63   67 1   
    66   63   68 1   
    67   64   65 2   
    68   64   69 1   
    69   69   70 1   
    70   69   76 1   
    71   70   71 1   
    72   70   73 1   
    73   70   77 1   
    74   71   72 2   
    75   71   83 1   
    76   73   74 1   
    77   73   75 1   
    78   73   78 1   
    79   74   80 1   
    80   74   81 1   
    81   74   82 1   
    82   75   79 1   
    83   83   84 1   
    84   83   91 1   
    85   84   85 1   
    86   84   87 1   
    87   84   92 1   
    88   85   86 2   
    89   85  102 1   
    90   87   88 1   
    91   87   89 1   
    92   87   93 1   
    93   88   90 1   
    94   88   94 1   
    95   88   95 1   
    96   89   96 1   
    97   89   97 1   
    98   89   98 1   
    99   90   99 1   
   100   90  100 1   
   101   90  101 1   
   102  102  103 1   
   103  102  110 1   
   104  103  104 1   
   105  103  106 1   
   106  103  111 1   
   107  104  105 2   
   108  104  114 1   
   109  106  107 1   
   110  106  112 1   
   111  106  113 1   
   112  107  108 1   
   113  107  109 1   
   114  114  115 1   
   115  114  125 1   
   116  115  116 1   
   117  115  118 1   
   118  115  126 1   
   119  116  117 2   
   120  116  134 1   
   121  118  119 1   
   122  118  127 1   
   123  118  128 1   
   124  119  120 ar  
   125  119  121 ar  
   126  120  122 ar  
   127  120  129 1   
   128  121  123 ar  
   129  121  130 1   
   130  122  124 ar  
   131  122  131 1   
   132  123  124 ar  
   133  123  132 1   
   134  124  133 1   
   135  134  135 1   
   136  134  140 1   
   137  135  136 1   
   138  135  138 1   
   139  135  141 1   
   140  136  137 2   
   141  136  148 1   
   142  138  139 1   
   143  138  142 1   
   144  138  143 1   
   145  139  140 1   
   146  139  144 1   
   147  139  145 1   
   148  140  146 1   
   149  140  147 1   
   150  148  149 1   
   151  148  157 1   
   152  149  150 1   
   153  149  152 1   
   154  149  158 1   
   155  150  151 2   
   156  150  163 1   
   157  152  153 1   
   158  152  159 1   
   159  152  160 1   
   160  153  154 1   
   161  153  161 1   
   162  153  162 1   
   163  154  155 1   
   164  154  156 1   
   165  163  164 1   
   166  163  168 1   
   167  164  165 1   
   168  164  166 1   
   169  164  167 1   
   170  170  171 1   
   171  170  172 1   
   172  173  174 1   
   173  173  175 1   
   174  176  177 1   
   175  176  178 1   
   176  179  180 1   
   177  179  181 1   
@<TRIPOS>SUBSTRUCTURE
     1 MOL         1 TEMP              0 ****  ****    0 ROOT
