@<TRIPOS>MOLECULE
MOL
  195   189     1     0     0
SMALL
resp


@<TRIPOS>ATOM
      1 C1         -4.3270   -1.4720    2.6470 c3        1 MOL     -0.203636
      2 C2         -3.4100   -2.3230    1.7380 c         1 MOL      0.519512
      3 O1         -2.4300   -1.8750    1.2010 o         1 MOL     -0.450041
      4 H1         -3.7270   -0.7310    3.1760 hc        1 MOL      0.050571
      5 H2         -5.0750   -0.9650    2.0380 hc        1 MOL      0.050571
      6 H3         -4.8240   -2.1180    3.3700 hc        1 MOL      0.050571
      7 N1         -3.8750   -3.5560    1.4650 n         1 MOL     -0.504300
      8 C3         -3.2830   -4.4830    0.5170 c3        1 MOL     -0.000039
      9 C4         -1.7840   -4.7330    0.7440 c         1 MOL      0.723120
     10 O2         -1.0600   -4.9520   -0.1880 o         1 MOL     -0.529063
     11 C5         -3.6200   -4.0500   -0.9390 c3        1 MOL     -0.292458
     12 C6         -5.0710   -3.7090   -1.2090 c         1 MOL      0.998962
     13 O3         -5.9850   -4.3840   -0.7220 o         1 MOL     -0.870009
     14 O4         -5.4100   -2.8730   -2.0040 o         1 MOL     -0.870009
     15 H4         -4.7950   -3.7810    1.8210 hn        1 MOL      0.280131
     16 H5         -3.7140   -5.4690    0.6570 h1        1 MOL      0.089240
     17 H6         -3.2440   -4.8450   -1.5860 hc        1 MOL      0.085619
     18 H7         -3.0800   -3.1380   -1.1900 hc        1 MOL      0.085619
     19 N2         -1.3450   -4.6840    2.0230 n         1 MOL     -0.697757
     20 C7          0.0350   -4.8230    2.4570 c3        1 MOL     -0.021684
     21 C8          0.8220   -6.0770    2.0700 c         1 MOL      0.643856
     22 O5          0.2540   -7.1790    2.2150 o         1 MOL     -0.582237
     23 C9          0.2340   -4.5380    4.0170 c3        1 MOL      0.120527
     24 C10        -0.2830   -5.6610    4.9750 c3        1 MOL      0.173844
     25 C11        -0.2970   -3.1080    4.3400 c3        1 MOL     -0.300714
     26 C12         0.6330   -5.7740    6.2100 c3        1 MOL     -0.190026
     27 H8         -1.9900   -4.4620    2.7660 hn        1 MOL      0.332529
     28 H9          0.4800   -3.9440    2.0000 h1        1 MOL      0.152022
     29 H10         1.3050   -4.4230    4.2000 hc        1 MOL      0.031332
     30 H11        -0.3320   -6.5600    4.3680 hc        1 MOL     -0.049359
     31 H12        -1.2820   -5.3640    5.2670 hc        1 MOL     -0.049359
     32 H13         0.2190   -2.7820    5.2420 hc        1 MOL      0.070815
     33 H14        -0.1910   -2.3290    3.5930 hc        1 MOL      0.070815
     34 H15        -1.3490   -3.2360    4.6090 hc        1 MOL      0.070815
     35 H16         1.6850   -5.9540    5.9880 hc        1 MOL      0.032123
     36 H17         0.6700   -4.7870    6.6940 hc        1 MOL      0.032123
     37 H18         0.1690   -6.4610    6.9220 hc        1 MOL      0.032123
     38 N3          2.0690   -6.0920    1.6390 n         1 MOL     -0.600302
     39 C13         2.8440   -4.9880    0.9670 c3        1 MOL      0.090772
     40 C14         3.6490   -5.6250   -0.1580 c         1 MOL      0.542277
     41 O6          4.2620   -6.6650   -0.0250 o         1 MOL     -0.563916
     42 C15         3.7370   -4.2690    1.9740 c3        1 MOL     -0.235885
     43 C16         4.8350   -3.3900    1.3210 c         1 MOL      0.743126
     44 O7          5.9620   -3.3130    1.9030 o         1 MOL     -0.703896
     45 O8          4.6310   -2.7630    0.2400 o         1 MOL     -0.703896
     46 H19         2.6090   -6.9440    1.6330 hn        1 MOL      0.323305
     47 H20         2.1740   -4.2600    0.5040 h1        1 MOL      0.035229
     48 H21         4.1840   -5.0020    2.6460 hc        1 MOL      0.056389
     49 H22         2.9920   -3.6300    2.4590 hc        1 MOL      0.056389
     50 N4          3.7060   -4.9920   -1.2940 n         1 MOL     -0.305128
     51 C17         4.5110   -5.4970   -2.4530 c3        1 MOL     -0.154562
     52 C18         5.5740   -4.5320   -3.0080 c         1 MOL      0.642955
     53 O9          6.3690   -4.9870   -3.8460 o         1 MOL     -0.608444
     54 H23         3.0400   -4.2530   -1.4950 hn        1 MOL      0.275443
     55 H24         3.7550   -5.7950   -3.1780 h1        1 MOL      0.085197
     56 H25         5.0090   -6.4340   -2.1950 h1        1 MOL      0.085197
     57 N5          5.7050   -3.3690   -2.3000 n         1 MOL     -0.490823
     58 C19         6.6550   -2.3440   -2.7260 c3        1 MOL      0.039245
     59 C20         7.5380   -1.7020   -1.6980 c         1 MOL      0.406417
     60 O10         8.6420   -1.2670   -2.0070 o         1 MOL     -0.568446
     61 C21         5.9450   -1.3190   -3.5730 c3        1 MOL     -0.213742
     62 C22         4.8030   -0.7090   -2.7910 c         1 MOL      0.678738
     63 O11         3.6030   -1.0770   -2.9160 o         1 MOL     -0.661843
     64 O12         5.0820    0.1480   -1.8980 o         1 MOL     -0.661843
     65 H26         5.1670   -3.2240   -1.4650 hn        1 MOL      0.324060
     66 H27         7.3540   -2.7530   -3.4590 h1        1 MOL      0.097117
     67 H28         5.5720   -1.8530   -4.4480 hc        1 MOL      0.034958
     68 H29         6.6550   -0.5240   -3.7680 hc        1 MOL      0.034958
     69 N6          7.1150   -1.6070   -0.4080 n         1 MOL     -0.136958
     70 C23         7.8910   -0.9840    0.6490 c3        1 MOL     -0.264575
     71 C24         8.1510    0.5360    0.4150 c         1 MOL      0.559831
     72 O13         8.9770    1.1300    1.0450 o         1 MOL     -0.598221
     73 H30         6.1660   -1.8890   -0.1920 hn        1 MOL      0.253748
     74 H31         8.8230   -1.5450    0.7240 h1        1 MOL      0.115146
     75 H32         7.2290   -0.9450    1.5140 h1        1 MOL      0.115146
     76 N7          7.3950    1.1380   -0.5010 n         1 MOL      0.064370
     77 C25         7.4030    2.5570   -0.8730 c3        1 MOL     -0.278067
     78 C26         7.1570    3.5000    0.2780 c         1 MOL      0.625455
     79 O14         7.5800    4.6770    0.2880 o         1 MOL     -0.557900
     80 C27         8.5610    2.9400   -1.8630 c3        1 MOL     -0.002546
     81 C28         8.4510    2.1370   -3.1530 c3        1 MOL      0.029578
     82 C29         9.0160    2.8840   -4.3750 c         1 MOL      0.540448
     83 N8          9.9460    2.2660   -5.0780 n         1 MOL     -0.749688
     84 O15         8.7290    4.0460   -4.5980 o         1 MOL     -0.550209
     85 H33         6.8520    0.5790   -1.1300 hn        1 MOL      0.050595
     86 H34         6.5330    2.7500   -1.5070 h1        1 MOL      0.176590
     87 H35         9.5680    2.7220   -1.5330 hc        1 MOL      0.019596
     88 H36         8.4820    4.0010   -2.1040 hc        1 MOL      0.019596
     89 H37         7.3900    1.9270   -3.3040 hc        1 MOL      0.010550
     90 H38         8.9590    1.1940   -2.9700 hc        1 MOL      0.010550
     91 H39        10.2520    1.3450   -4.8030 hn        1 MOL      0.339860
     92 H40        10.3260    2.7920   -5.8520 hn        1 MOL      0.339860
     93 N9          6.2380    3.1090    1.1530 n         1 MOL     -0.394687
     94 C30         5.8600    3.8710    2.3810 c3        1 MOL     -0.169221
     95 C31         4.3800    3.8560    2.6730 c         1 MOL      0.691658
     96 O16         3.8240    4.7630    3.2850 o         1 MOL     -0.586914
     97 C32         6.6070    3.3900    3.6200 c3        1 MOL      0.326348
     98 C33         6.5500    1.8600    3.6660 c3        1 MOL     -0.367340
     99 C34         8.0890    3.7450    3.7020 c3        1 MOL     -0.367340
    100 H41         5.9270    2.1530    1.0640 hn        1 MOL      0.156752
    101 H42         6.2590    4.8770    2.3330 h1        1 MOL      0.126475
    102 H43         6.1230    3.8010    4.5140 hc        1 MOL     -0.045674
    103 H44         5.5910    1.5020    3.3020 hc        1 MOL      0.086507
    104 H45         7.4290    1.4560    3.1610 hc        1 MOL      0.086507
    105 H46         6.4540    1.4620    4.6790 hc        1 MOL      0.086507
    106 H47         7.9890    4.8240    3.8240 hc        1 MOL      0.086507
    107 H48         8.5020    3.1900    4.5370 hc        1 MOL      0.086507
    108 H49         8.4770    3.5740    2.6960 hc        1 MOL      0.086507
    109 N10         3.6190    2.8030    2.1760 n         1 MOL     -0.631858
    110 C35         2.1640    2.6330    2.2300 c3        1 MOL      0.317150
    111 C36         1.4300    3.1750    0.8760 c         1 MOL      0.602928
    112 O17         2.0690    3.4710   -0.1150 o         1 MOL     -0.524313
    113 C37         2.0410    1.1610    2.5770 c3        1 MOL     -0.240935
    114 C38         0.6180    0.6160    2.3930 c         1 MOL      0.648397
    115 N11         0.3230   -0.3330    1.5140 n         1 MOL     -0.731832
    116 O18        -0.2510    0.9430    3.2210 o         1 MOL     -0.602753
    117 H50         4.1680    2.0390    1.8020 hn        1 MOL      0.335405
    118 H51         1.6750    3.1710    3.0410 h1        1 MOL      0.025930
    119 H52         2.2930    1.1260    3.6320 hc        1 MOL      0.057469
    120 H53         2.6620    0.5080    1.9620 hc        1 MOL      0.057469
    121 H54         0.9820   -0.6770    0.8320 hn        1 MOL      0.372359
    122 H55        -0.6140   -0.7030    1.6270 hn        1 MOL      0.372359
    123 N12         0.1210    3.2790    0.9330 n         1 MOL     -0.595662
    124 C39        -0.6790    3.6080   -0.2900 c3        1 MOL      0.078033
    125 C40        -2.1930    3.8520   -0.1020 c         1 MOL      0.635202
    126 O19        -2.8100    3.2760    0.7660 o         1 MOL     -0.553236
    127 C41        -0.4780    2.5170   -1.3930 c3        1 MOL     -0.324666
    128 C42        -1.7300    1.7880   -1.7780 ca        1 MOL      0.098174
    129 C43        -2.3230    0.8820   -0.8670 ca        1 MOL     -0.191332
    130 C44        -2.1620    1.8600   -3.1360 ca        1 MOL     -0.191332
    131 C45        -3.3850    0.0340   -1.2930 ca        1 MOL     -0.016252
    132 C46        -3.1070    0.9510   -3.5340 ca        1 MOL     -0.016252
    133 C47        -3.7490    0.0560   -2.6360 ca        1 MOL     -0.076162
    134 O20        -4.6960   -0.7700   -3.0580 oh        1 MOL     -0.451840
    135 H56        -0.3800    2.9920    1.7620 hn        1 MOL      0.292165
    136 H57        -0.2590    4.5560   -0.6020 h1        1 MOL      0.089948
    137 H58         0.2730    1.7710   -1.1050 hc        1 MOL      0.134912
    138 H59        -0.1020    2.9870   -2.3010 hc        1 MOL      0.134912
    139 H60        -1.9660    0.8730    0.1450 ha        1 MOL      0.116368
    140 H61        -1.7830    2.5130   -3.9140 ha        1 MOL      0.116368
    141 H62        -3.9590   -0.6470   -0.6740 ha        1 MOL      0.055082
    142 H63        -3.3010    0.9680   -4.5960 ha        1 MOL      0.055082
    143 H64        -4.8790   -1.5190   -2.4750 ho        1 MOL      0.526176
    144 N13        -2.7590    4.8050   -0.8370 n         1 MOL     -0.573713
    145 C48        -4.0790    5.3680   -0.5070 c3        1 MOL      0.331556
    146 C49        -5.2770    4.8130   -1.2740 c         1 MOL      0.354410
    147 O21        -5.3970    4.8470   -2.5100 o         1 MOL     -0.556535
    148 C50        -4.0610    6.9070   -0.6530 c3        1 MOL     -0.011742
    149 C51        -3.1190    7.6090    0.2070 c3        1 MOL     -0.061600
    150 C52        -3.3370    9.0840   -0.0700 c         1 MOL      0.632138
    151 O22        -4.1600    9.7540    0.5720 o         1 MOL     -0.679038
    152 O23        -2.7160    9.5480   -1.0840 o         1 MOL     -0.679038
    153 H65        -2.1850    5.2290   -1.5500 hn        1 MOL      0.313487
    154 H66        -4.2760    5.1510    0.5400 h1        1 MOL     -0.005660
    155 H67        -5.0540    7.2710   -0.4180 hc        1 MOL      0.024233
    156 H68        -3.7600    7.1770   -1.6660 hc        1 MOL      0.024233
    157 H69        -2.0710    7.3440    0.0020 hc        1 MOL     -0.025575
    158 H70        -3.2660    7.3380    1.2460 hc        1 MOL     -0.025575
    159 N14        -6.2410    4.1690   -0.6400 n         1 MOL     -0.377194
    160 C53        -6.2070    3.5480    0.7080 c3        1 MOL     -0.077069
    161 C54        -6.6630    4.5280    1.8100 c         1 MOL      0.458970
    162 O24        -7.4630    5.4330    1.5940 o         1 MOL     -0.524636
    163 C55        -7.0540    2.3590    0.7490 c3        1 MOL      0.133036
    164 C56        -6.6030    1.2030   -0.1750 c3        1 MOL     -0.001209
    165 C57        -7.5330   -0.0350   -0.0680 c         1 MOL      0.609318
    166 O25        -6.9870   -1.1120    0.1830 o         1 MOL     -0.706033
    167 O26        -8.7950   -0.0050   -0.1600 o         1 MOL     -0.706033
    168 H71        -7.1220    4.0630   -1.1120 hn        1 MOL      0.297557
    169 H72        -5.1900    3.2520    0.9620 h1        1 MOL      0.103933
    170 H73        -8.0500    2.5960    0.3780 hc        1 MOL     -0.047600
    171 H74        -7.0750    1.9890    1.7720 hc        1 MOL     -0.047600
    172 H75        -5.5630    0.9060   -0.0340 hc        1 MOL      0.050830
    173 H76        -6.6860    1.5590   -1.2000 hc        1 MOL      0.050830
    174 N15        -6.1480    4.3550    3.0170 n         1 MOL     -0.307841
    175 C58        -6.3080    5.2380    4.2240 c3        1 MOL     -0.061942
    176 H77        -5.3280    5.5830    4.5530 h1        1 MOL      0.062899
    177 H78        -6.9280    6.0970    3.9670 h1        1 MOL      0.062899
    178 H79        -6.7840    4.6740    5.0260 h1        1 MOL      0.062899
    179 H80        -5.4560    3.6260    3.1410 hn        1 MOL      0.253065
    180 Ca1        -8.1340   -2.8440   -1.1940 Ca        1 MOL      1.657720
    181 O27       -10.8330   -2.8460   -0.5500 oh        1 MOL     -0.778244
    182 H81       -11.2980   -2.0150   -0.4460 ho        1 MOL      0.372233
    183 H82       -11.1230   -3.1800   -1.4070 ho        1 MOL      0.372233
    184 O28        -9.1980   -5.2360   -1.3410 oh        1 MOL     -0.778244
    185 H83       -10.0760   -5.6200   -1.3440 ho        1 MOL      0.372233
    186 H84        -8.6560   -5.8670   -1.8100 ho        1 MOL      0.372233
    187 O29       -10.4100   -2.5160   -3.0670 oh        1 MOL     -0.778244
    188 H85       -10.3630   -1.7870   -3.6880 ho        1 MOL      0.372233
    189 H86       -10.7970   -3.2300   -3.5680 ho        1 MOL      0.372233
    190 O30        -7.7550   -3.8520   -3.7090 oh        1 MOL     -0.778244
    191 H87        -6.9660   -3.7880   -4.2460 ho        1 MOL      0.372233
    192 H88        -8.0330   -4.7690   -3.7920 ho        1 MOL      0.372233
    193 O31        -7.7810   -0.8570   -3.0910 oh        1 MOL     -0.778244
    194 H89        -7.6490    0.0890   -3.0460 ho        1 MOL      0.372233
    195 H90        -7.3430   -1.1280   -3.8990 ho        1 MOL      0.372233
@<TRIPOS>BOND
     1    1    2 1   
     2    1    4 1   
     3    1    5 1   
     4    1    6 1   
     5    2    3 2   
     6    2    7 1   
     7    7    8 1   
     8    7   15 1   
     9    8    9 1   
    10    8   11 1   
    11    8   16 1   
    12    9   10 2   
    13    9   19 1   
    14   11   12 1   
    15   11   17 1   
    16   11   18 1   
    17   12   13 1   
    18   12   14 1   
    19   19   20 1   
    20   19   27 1   
    21   20   21 1   
    22   20   23 1   
    23   20   28 1   
    24   21   22 2   
    25   21   38 1   
    26   23   24 1   
    27   23   25 1   
    28   23   29 1   
    29   24   26 1   
    30   24   30 1   
    31   24   31 1   
    32   25   32 1   
    33   25   33 1   
    34   25   34 1   
    35   26   35 1   
    36   26   36 1   
    37   26   37 1   
    38   38   39 1   
    39   38   46 1   
    40   39   40 1   
    41   39   42 1   
    42   39   47 1   
    43   40   41 2   
    44   40   50 1   
    45   42   43 1   
    46   42   48 1   
    47   42   49 1   
    48   43   44 1   
    49   43   45 1   
    50   50   51 1   
    51   50   54 1   
    52   51   52 1   
    53   51   55 1   
    54   51   56 1   
    55   52   53 2   
    56   52   57 1   
    57   57   58 1   
    58   57   65 1   
    59   58   59 1   
    60   58   61 1   
    61   58   66 1   
    62   59   60 2   
    63   59   69 1   
    64   61   62 1   
    65   61   67 1   
    66   61   68 1   
    67   62   63 1   
    68   62   64 1   
    69   69   70 1   
    70   69   73 1   
    71   70   71 1   
    72   70   74 1   
    73   70   75 1   
    74   71   72 2   
    75   71   76 1   
    76   76   77 1   
    77   76   85 1   
    78   77   78 1   
    79   77   80 1   
    80   77   86 1   
    81   78   79 2   
    82   78   93 1   
    83   80   81 1   
    84   80   87 1   
    85   80   88 1   
    86   81   82 1   
    87   81   89 1   
    88   81   90 1   
    89   82   83 1   
    90   82   84 2   
    91   83   91 1   
    92   83   92 1   
    93   93   94 1   
    94   93  100 1   
    95   94   95 1   
    96   94   97 1   
    97   94  101 1   
    98   95   96 2   
    99   95  109 1   
   100   97   98 1   
   101   97   99 1   
   102   97  102 1   
   103   98  103 1   
   104   98  104 1   
   105   98  105 1   
   106   99  106 1   
   107   99  107 1   
   108   99  108 1   
   109  109  110 1   
   110  109  117 1   
   111  110  111 1   
   112  110  113 1   
   113  110  118 1   
   114  111  112 2   
   115  111  123 1   
   116  113  114 1   
   117  113  119 1   
   118  113  120 1   
   119  114  115 1   
   120  114  116 2   
   121  115  121 1   
   122  115  122 1   
   123  123  124 1   
   124  123  135 1   
   125  124  125 1   
   126  124  127 1   
   127  124  136 1   
   128  125  126 2   
   129  125  144 1   
   130  127  128 1   
   131  127  137 1   
   132  127  138 1   
   133  128  129 ar  
   134  128  130 ar  
   135  129  131 ar  
   136  129  139 1   
   137  130  132 ar  
   138  130  140 1   
   139  131  133 ar  
   140  131  141 1   
   141  132  133 ar  
   142  132  142 1   
   143  133  134 1   
   144  134  143 1   
   145  144  145 1   
   146  144  153 1   
   147  145  146 1   
   148  145  148 1   
   149  145  154 1   
   150  146  147 2   
   151  146  159 1   
   152  148  149 1   
   153  148  155 1   
   154  148  156 1   
   155  149  150 1   
   156  149  157 1   
   157  149  158 1   
   158  150  151 1   
   159  150  152 1   
   160  159  160 1   
   161  159  168 1   
   162  160  161 1   
   163  160  163 1   
   164  160  169 1   
   165  161  162 2   
   166  161  174 1   
   167  163  164 1   
   168  163  170 1   
   169  163  171 1   
   170  164  165 1   
   171  164  172 1   
   172  164  173 1   
   173  165  166 1   
   174  165  167 1   
   175  174  175 1   
   176  174  179 1   
   177  175  176 1   
   178  175  177 1   
   179  175  178 1   
   180  181  182 1   
   181  181  183 1   
   182  184  185 1   
   183  184  186 1   
   184  187  188 1   
   185  187  189 1   
   186  190  191 1   
   187  190  192 1   
   188  193  194 1   
   189  193  195 1   
@<TRIPOS>SUBSTRUCTURE
     1 MOL         1 TEMP              0 ****  ****    0 ROOT
