@<TRIPOS>MOLECULE
MOL
  181   177     1     0     0
SMALL
resp


@<TRIPOS>ATOM
      1 C1         -1.8470    7.1560    2.1550 c3        1 MOL     -0.378993
      2 C2         -3.2110    6.8920    1.5510 c         1 MOL      0.710458
      3 O1         -3.4910    7.4310    0.4880 o         1 MOL     -0.610725
      4 H1         -1.9630    7.7320    3.0730 hc        1 MOL      0.087868
      5 H2         -1.3600    6.2080    2.3810 hc        1 MOL      0.087868
      6 H3         -1.2380    7.7180    1.4470 hc        1 MOL      0.087868
      7 N1         -4.0590    6.0940    2.1510 n         1 MOL     -0.465821
      8 C3         -5.3870    5.7020    1.5980 c3        1 MOL     -0.071503
      9 C4         -5.1280    4.6560    0.4860 c         1 MOL      0.754810
     10 O2         -4.5740    3.5580    0.7100 o         1 MOL     -0.613362
     11 C5         -6.3540    5.2030    2.7040 c3        1 MOL     -0.178845
     12 C6         -7.7710    4.7640    2.2970 c         1 MOL      0.650220
     13 O3         -8.7420    5.1780    2.9890 o         1 MOL     -0.701881
     14 O4         -7.9430    3.8770    1.4190 o         1 MOL     -0.701881
     15 H4         -3.7470    5.6350    2.9980 hn        1 MOL      0.266929
     16 H5         -5.8820    6.5540    1.1440 h1        1 MOL      0.080896
     17 H6         -6.5290    5.9630    3.4630 hc        1 MOL      0.042683
     18 H7         -6.0010    4.3950    3.3420 hc        1 MOL      0.042683
     19 N2         -5.5400    5.0660   -0.7150 n         1 MOL     -0.673404
     20 C7         -5.2390    4.3030   -1.9260 c3        1 MOL      0.459050
     21 C8         -3.7920    4.0300   -2.1490 c         1 MOL      0.311852
     22 O5         -2.9100    4.8270   -1.7010 o         1 MOL     -0.510278
     23 C9         -5.9180    5.0170   -3.1290 c3        1 MOL     -0.299761
     24 H8         -6.0160    5.9550   -0.7780 hn        1 MOL      0.341713
     25 H9         -5.7380    3.3380   -1.8470 h1        1 MOL      0.018281
     26 H10        -6.8030    5.5620   -2.8140 hc        1 MOL      0.064514
     27 H11        -5.3340    5.8300   -3.5700 hc        1 MOL      0.064514
     28 H12        -6.0970    4.3540   -3.9790 hc        1 MOL      0.064514
     29 N3         -3.3720    2.9520   -2.7820 n         1 MOL     -0.288606
     30 C10        -4.3010    1.8600   -3.3280 c3        1 MOL     -0.022227
     31 C11        -4.6260    0.7890   -2.2590 c         1 MOL      0.400093
     32 O6         -4.3740    1.0870   -1.0890 o         1 MOL     -0.319597
     33 C12        -3.4950    1.2570   -4.4970 c3        1 MOL     -0.215360
     34 C13        -2.0640    0.8460   -4.1170 c         1 MOL      0.744659
     35 O7         -1.8850   -0.0950   -3.3680 o         1 MOL     -0.710068
     36 O8         -1.0480    1.5120   -4.4810 o         1 MOL     -0.710068
     37 H13        -2.4030    2.8960   -3.0520 hn        1 MOL      0.239975
     38 H14        -5.2250    2.2560   -3.7470 h1        1 MOL      0.093556
     39 H15        -3.5280    1.9410   -5.3550 hc        1 MOL      0.037546
     40 H16        -3.9270    0.3360   -4.8910 hc        1 MOL      0.037546
     41 N4         -4.9710   -0.4590   -2.5790 n         1 MOL     -0.478233
     42 C14        -5.1900   -1.4760   -1.5240 c3        1 MOL      0.019741
     43 C15        -6.4900   -1.3200   -0.7860 c         1 MOL      0.527367
     44 O9         -7.1960   -0.3880   -1.1650 o         1 MOL     -0.474499
     45 H17        -5.0210   -0.7360   -3.5450 hn        1 MOL      0.314086
     46 H18        -4.3590   -1.4180   -0.8190 h1        1 MOL      0.045836
     47 H19        -5.1690   -2.4740   -1.9650 h1        1 MOL      0.045836
     48 N5         -7.0530   -2.2720   -0.0350 n         1 MOL     -0.470194
     49 C16        -6.3700   -3.5510    0.2620 c3        1 MOL      0.118685
     50 C17        -5.2230   -3.3300    1.2690 c         1 MOL      0.577915
     51 O10        -4.8540   -2.1800    1.5410 o         1 MOL     -0.448182
     52 C18        -7.5360   -4.4790    0.7660 c3        1 MOL     -0.230233
     53 C19        -8.1590   -4.1740    2.1010 c         1 MOL      0.667048
     54 N6         -8.0700   -4.9830    3.0900 n         1 MOL     -0.762980
     55 O11        -8.7560   -3.1370    2.2660 o         1 MOL     -0.504973
     56 H20        -8.0000   -2.1250    0.3070 hn        1 MOL      0.301733
     57 H21        -5.9330   -4.0930   -0.5730 h1        1 MOL      0.041172
     58 H22        -7.0590   -5.4570    0.7630 hc        1 MOL      0.039220
     59 H23        -8.2450   -4.4870   -0.0570 hc        1 MOL      0.039220
     60 H24        -7.4050   -5.7470    3.0670 hn        1 MOL      0.359572
     61 H25        -8.5430   -4.7170    3.9390 hn        1 MOL      0.359572
     62 N7         -4.5950   -4.4720    1.6030 n         1 MOL     -0.553478
     63 C20        -3.4940   -4.5710    2.6400 c3        1 MOL     -0.200295
     64 C21        -2.0780   -4.6380    2.1150 c         1 MOL      0.572222
     65 O12        -1.1340   -4.1810    2.7310 o         1 MOL     -0.550847
     66 H26        -4.9520   -5.3410    1.2330 hn        1 MOL      0.328804
     67 H27        -3.5630   -5.5320    3.1480 h1        1 MOL      0.137619
     68 H28        -3.5830   -3.7970    3.3920 h1        1 MOL      0.137619
     69 N8         -1.9760   -5.1210    0.8790 n         1 MOL     -0.312851
     70 C22        -0.7360   -5.5550    0.4190 c3        1 MOL     -0.173212
     71 C23         0.2880   -4.4060    0.3210 c         1 MOL      0.932318
     72 O13        -0.0320   -3.3400   -0.2420 o         1 MOL     -0.809450
     73 C24        -0.8900   -6.1730   -1.0170 c3        1 MOL      0.444342
     74 C25         0.3550   -6.6530   -1.6560 c3        1 MOL     -0.526446
     75 O14        -1.6710   -7.3620   -0.8520 oh        1 MOL     -0.620469
     76 H29        -2.8080   -5.3390    0.3490 hn        1 MOL      0.181461
     77 H30        -0.2620   -6.2990    1.0530 h1        1 MOL      0.098045
     78 H31        -1.3840   -5.4440   -1.6680 h1        1 MOL     -0.034998
     79 H32        -2.4860   -7.2160   -1.3440 ho        1 MOL      0.369786
     80 H33         1.1030   -5.8740   -1.8350 hc        1 MOL      0.156837
     81 H34         0.7770   -7.4130   -1.0000 hc        1 MOL      0.156837
     82 H35         0.2320   -7.0870   -2.6480 hc        1 MOL      0.156837
     83 N9          1.4350   -4.5600    0.9940 n         1 MOL     -0.642376
     84 C26         2.5860   -3.6990    1.0300 c3        1 MOL     -0.093561
     85 C27         3.2760   -3.7500   -0.3190 c         1 MOL      0.350765
     86 O15         3.5290   -4.8660   -0.8450 o         1 MOL     -0.574016
     87 C28         3.7130   -4.0700    2.0410 c3        1 MOL      0.405995
     88 C29         5.0830   -3.3740    1.9410 c3        1 MOL      0.058397
     89 C30         3.1590   -4.1470    3.4460 c3        1 MOL     -0.309286
     90 C31         6.2350   -4.0230    2.8080 c3        1 MOL     -0.188965
     91 H36         1.5480   -5.4590    1.4450 hn        1 MOL      0.296471
     92 H37         2.2090   -2.6870    1.2060 h1        1 MOL      0.279036
     93 H38         3.9740   -5.0810    1.7180 hc        1 MOL     -0.057095
     94 H39         4.8350   -2.4150    2.4010 hc        1 MOL     -0.040248
     95 H40         5.3480   -3.1930    0.8970 hc        1 MOL     -0.040248
     96 H41         2.9310   -3.1250    3.7560 hc        1 MOL      0.050108
     97 H42         2.3580   -4.8910    3.4270 hc        1 MOL      0.050108
     98 H43         3.9460   -4.4670    4.1410 hc        1 MOL      0.050108
     99 H44         7.1480   -3.4780    2.5630 hc        1 MOL      0.037915
    100 H45         6.1830   -3.8130    3.8820 hc        1 MOL      0.037915
    101 H46         6.4310   -5.0760    2.6510 hc        1 MOL      0.037915
    102 N10         3.5600   -2.5590   -0.8380 n         1 MOL      0.365196
    103 C32         4.2480   -2.2540   -2.0490 c3        1 MOL     -0.184638
    104 C33         5.5440   -1.3280   -2.0470 c         1 MOL      0.507128
    105 O16         6.3110   -1.3790   -3.0230 o         1 MOL     -0.535092
    106 C34         3.2560   -1.5580   -3.0930 c3        1 MOL      0.082839
    107 C35         2.0410   -2.4110   -3.3630 c         1 MOL      0.691859
    108 O17         0.8380   -2.0720   -3.1320 o         1 MOL     -0.727919
    109 O18         2.2190   -3.5630   -3.8220 o         1 MOL     -0.727919
    110 H47         3.1800   -1.7050   -0.4500 hn        1 MOL     -0.366767
    111 H48         4.5710   -3.2260   -2.4090 h1        1 MOL      0.085236
    112 H49         3.8240   -1.3060   -3.9910 hc        1 MOL     -0.019381
    113 H50         2.9010   -0.5740   -2.7590 hc        1 MOL     -0.019381
    114 N11         5.6420   -0.4750   -0.9980 n         1 MOL     -0.398432
    115 C36         6.5750    0.7150   -0.9870 c3        1 MOL      0.216097
    116 C37         5.9440    1.7930   -0.1390 c         1 MOL      0.393122
    117 O19         6.2580    1.9110    1.0250 o         1 MOL     -0.503461
    118 C38         8.0010    0.2860   -0.5860 c3        1 MOL     -0.271385
    119 C39         9.0140    1.4210   -0.6410 ca        1 MOL      0.153185
    120 C40         9.4340    2.0110   -1.9060 ca        1 MOL     -0.202202
    121 C41         9.5970    1.8660    0.5580 ca        1 MOL     -0.202202
    122 C42        10.5320    2.8600   -1.9390 ca        1 MOL     -0.064687
    123 C43        10.7490    2.7350    0.4790 ca        1 MOL     -0.064687
    124 C44        11.2650    3.1150   -0.7530 ca        1 MOL     -0.198144
    125 H51         4.8490   -0.4280   -0.3780 hn        1 MOL      0.201679
    126 H52         6.7450    1.1610   -1.9710 h1        1 MOL      0.017672
    127 H53         8.4030   -0.4040   -1.3390 hc        1 MOL      0.102513
    128 H54         7.9990   -0.3000    0.3360 hc        1 MOL      0.102513
    129 H55         9.0080    1.6660   -2.8450 ha        1 MOL      0.133137
    130 H56         9.2190    1.6330    1.5330 ha        1 MOL      0.133137
    131 H57        10.8440    3.2280   -2.9000 ha        1 MOL      0.094304
    132 H58        11.1850    3.0170    1.4240 ha        1 MOL      0.094304
    133 H59        12.1860    3.6690   -0.7460 ha        1 MOL      0.108445
    134 N12         4.9140    2.4790   -0.6470 n         1 MOL     -0.151500
    135 C45         4.3800    3.6850   -0.0250 c3        1 MOL      0.069107
    136 C46         3.8790    3.5310    1.4200 c         1 MOL      0.297801
    137 O20         3.7940    4.6130    2.0950 o         1 MOL     -0.512124
    138 C47         3.1360    4.0290   -0.9260 c3        1 MOL     -0.136967
    139 C48         3.4190    3.3310   -2.2270 c3        1 MOL      0.032170
    140 C49         4.2310    2.0910   -1.8490 c3        1 MOL     -0.200951
    141 H60         5.1030    4.4970   -0.0430 h1        1 MOL      0.071953
    142 H61         2.2820    3.5330   -0.4760 hc        1 MOL      0.072715
    143 H62         3.0570    5.1170   -0.9950 hc        1 MOL      0.072715
    144 H63         2.4860    3.0860   -2.7370 hc        1 MOL      0.015388
    145 H64         3.8660    4.0230   -2.9510 hc        1 MOL      0.015388
    146 H65         3.5730    1.2310   -1.6890 h1        1 MOL      0.124051
    147 H66         4.8190    1.8350   -2.7200 h1        1 MOL      0.124051
    148 N13         3.4840    2.3190    1.8210 n         1 MOL     -0.124727
    149 C50         3.1390    1.9490    3.2320 c3        1 MOL     -0.097546
    150 C51         4.4050    1.9340    4.1610 c         1 MOL      0.374780
    151 O21         4.5640    2.5930    5.1630 o         1 MOL     -0.537218
    152 C52         2.4000    0.6010    3.4140 c3        1 MOL      0.210380
    153 C53         1.3380    0.3070    2.2800 c3        1 MOL     -0.395562
    154 C54         1.9950   -0.2150    1.0050 c         1 MOL      0.518618
    155 O22         1.3060   -0.4970    0.0220 o         1 MOL     -0.554100
    156 O23         3.2560   -0.3130    0.8690 o         1 MOL     -0.554100
    157 H67         3.6730    1.5040    1.2530 hn        1 MOL      0.285872
    158 H68         2.4170    2.6470    3.6470 h1        1 MOL      0.095212
    159 H69         1.8930    0.6480    4.3700 hc        1 MOL     -0.048843
    160 H70         3.1090   -0.2230    3.3210 hc        1 MOL     -0.048843
    161 H71         0.8410    1.2650    2.1110 hc        1 MOL      0.140175
    162 H72         0.6670   -0.4990    2.5860 hc        1 MOL      0.140175
    163 N14         5.4520    1.2220    3.7800 n         1 MOL     -0.058646
    164 C55         6.7720    1.0820    4.5030 c3        1 MOL     -0.293248
    165 H73         6.8280    1.8230    5.3010 h1        1 MOL      0.109639
    166 H74         6.8490    0.0820    4.9290 h1        1 MOL      0.109639
    167 H75         7.5910    1.2420    3.8010 h1        1 MOL      0.109639
    168 H76         5.3140    0.5760    3.0270 hn        1 MOL      0.179885
    169 Ca1        -0.6530   -1.0330   -1.2700 Ca        1 MOL      1.832517
    170 O24         0.6580    1.1310   -2.4510 oh        1 MOL     -0.900065
    171 H77         1.0510    2.0010   -2.4650 ho        1 MOL      0.426456
    172 H78         0.0210    1.1440   -3.1640 ho        1 MOL      0.426456
    173 O25        -2.1680   -1.4550    0.9410 oh        1 MOL     -0.900065
    174 H79        -3.0880   -1.5310    1.1950 ho        1 MOL      0.426456
    175 H80        -1.7170   -2.1120    1.4550 ho        1 MOL      0.426456
    176 O26        -2.3030   -2.9900   -2.1990 oh        1 MOL     -0.900065
    177 H81        -3.1320   -2.9340   -2.6670 ho        1 MOL      0.426456
    178 H82        -1.8350   -3.7090   -2.6140 ho        1 MOL      0.426456
    179 O27        -1.4580    1.5860   -0.4120 oh        1 MOL     -0.900065
    180 H83        -1.1920    2.5130   -0.3590 ho        1 MOL      0.426456
    181 H84        -2.4170    1.6130   -0.3790 ho        1 MOL      0.426456
@<TRIPOS>BOND
     1    1    2 1   
     2    1    4 1   
     3    1    5 1   
     4    1    6 1   
     5    2    3 2   
     6    2    7 1   
     7    7    8 1   
     8    7   15 1   
     9    8    9 1   
    10    8   11 1   
    11    8   16 1   
    12    9   10 2   
    13    9   19 1   
    14   11   12 1   
    15   11   17 1   
    16   11   18 1   
    17   12   13 1   
    18   12   14 1   
    19   19   20 1   
    20   19   24 1   
    21   20   21 1   
    22   20   23 1   
    23   20   25 1   
    24   21   22 2   
    25   21   29 1   
    26   23   26 1   
    27   23   27 1   
    28   23   28 1   
    29   29   30 1   
    30   29   37 1   
    31   30   31 1   
    32   30   33 1   
    33   30   38 1   
    34   31   32 2   
    35   31   41 1   
    36   33   34 1   
    37   33   39 1   
    38   33   40 1   
    39   34   35 1   
    40   34   36 1   
    41   41   42 1   
    42   41   45 1   
    43   42   43 1   
    44   42   46 1   
    45   42   47 1   
    46   43   44 2   
    47   43   48 1   
    48   48   49 1   
    49   48   56 1   
    50   49   50 1   
    51   49   52 1   
    52   49   57 1   
    53   50   51 2   
    54   50   62 1   
    55   52   53 1   
    56   52   58 1   
    57   52   59 1   
    58   53   54 1   
    59   53   55 2   
    60   54   60 1   
    61   54   61 1   
    62   62   63 1   
    63   62   66 1   
    64   63   64 1   
    65   63   67 1   
    66   63   68 1   
    67   64   65 2   
    68   64   69 1   
    69   69   70 1   
    70   69   76 1   
    71   70   71 1   
    72   70   73 1   
    73   70   77 1   
    74   71   72 2   
    75   71   83 1   
    76   73   74 1   
    77   73   75 1   
    78   73   78 1   
    79   74   80 1   
    80   74   81 1   
    81   74   82 1   
    82   75   79 1   
    83   83   84 1   
    84   83   91 1   
    85   84   85 1   
    86   84   87 1   
    87   84   92 1   
    88   85   86 2   
    89   85  102 1   
    90   87   88 1   
    91   87   89 1   
    92   87   93 1   
    93   88   90 1   
    94   88   94 1   
    95   88   95 1   
    96   89   96 1   
    97   89   97 1   
    98   89   98 1   
    99   90   99 1   
   100   90  100 1   
   101   90  101 1   
   102  102  103 1   
   103  102  110 1   
   104  103  104 1   
   105  103  106 1   
   106  103  111 1   
   107  104  105 2   
   108  104  114 1   
   109  106  107 1   
   110  106  112 1   
   111  106  113 1   
   112  107  108 1   
   113  107  109 1   
   114  114  115 1   
   115  114  125 1   
   116  115  116 1   
   117  115  118 1   
   118  115  126 1   
   119  116  117 2   
   120  116  134 1   
   121  118  119 1   
   122  118  127 1   
   123  118  128 1   
   124  119  120 ar  
   125  119  121 ar  
   126  120  122 ar  
   127  120  129 1   
   128  121  123 ar  
   129  121  130 1   
   130  122  124 ar  
   131  122  131 1   
   132  123  124 ar  
   133  123  132 1   
   134  124  133 1   
   135  134  135 1   
   136  134  140 1   
   137  135  136 1   
   138  135  138 1   
   139  135  141 1   
   140  136  137 2   
   141  136  148 1   
   142  138  139 1   
   143  138  142 1   
   144  138  143 1   
   145  139  140 1   
   146  139  144 1   
   147  139  145 1   
   148  140  146 1   
   149  140  147 1   
   150  148  149 1   
   151  148  157 1   
   152  149  150 1   
   153  149  152 1   
   154  149  158 1   
   155  150  151 2   
   156  150  163 1   
   157  152  153 1   
   158  152  159 1   
   159  152  160 1   
   160  153  154 1   
   161  153  161 1   
   162  153  162 1   
   163  154  155 1   
   164  154  156 1   
   165  163  164 1   
   166  163  168 1   
   167  164  165 1   
   168  164  166 1   
   169  164  167 1   
   170  170  171 1   
   171  170  172 1   
   172  173  174 1   
   173  173  175 1   
   174  176  177 1   
   175  176  178 1   
   176  179  180 1   
   177  179  181 1   
@<TRIPOS>SUBSTRUCTURE
     1 MOL         1 TEMP              0 ****  ****    0 ROOT
