@<TRIPOS>MOLECULE
MOL
  182   178     1     0     0
SMALL
resp


@<TRIPOS>ATOM
      1 C1          0.5410   -5.1980    5.6580 c3        1 MOL     -0.439065
      2 C2          0.7080   -4.6750    4.1960 c         1 MOL      0.727060
      3 O1         -0.0680   -5.0090    3.3290 o         1 MOL     -0.627827
      4 H1          0.3870   -6.2770    5.6430 hc        1 MOL      0.125872
      5 H2          1.4390   -4.9680    6.2320 hc        1 MOL      0.125872
      6 H3         -0.3190   -4.7150    6.1210 hc        1 MOL      0.125872
      7 N1          1.7630   -3.9170    3.8900 n         1 MOL     -0.583310
      8 C3          2.0310   -3.3520    2.5700 c3        1 MOL      0.110152
      9 C4          2.3250   -4.4700    1.5390 c         1 MOL      0.591701
     10 O2          3.3520   -5.1580    1.5460 o         1 MOL     -0.573169
     11 C5          3.1220   -2.2920    2.6020 c3        1 MOL     -0.229885
     12 C6          3.2800   -1.5950    1.2000 c         1 MOL      0.413438
     13 O3          4.0380   -0.5980    1.2260 o         1 MOL     -0.639393
     14 O4          2.7860   -2.0150    0.1500 o         1 MOL     -0.639393
     15 H4          2.4290   -3.6740    4.6010 hn        1 MOL      0.311061
     16 H5          1.0840   -2.9230    2.2440 h1        1 MOL      0.023962
     17 H6          4.0680   -2.7950    2.8240 hc        1 MOL      0.106140
     18 H7          2.8290   -1.5460    3.3410 hc        1 MOL      0.106140
     19 N2          1.5390   -4.5110    0.4710 n         1 MOL     -0.345550
     20 C7          1.8010   -5.5150   -0.6170 c3        1 MOL      0.029304
     21 C8          3.0530   -5.3150   -1.4870 c         1 MOL      0.470316
     22 O5          3.4830   -6.2460   -2.1810 o         1 MOL     -0.521122
     23 C9          0.4610   -5.5060   -1.4270 c3        1 MOL     -0.140653
     24 C10        -0.7940   -6.0640   -0.6990 c3        1 MOL      0.202830
     25 C11        -2.1090   -6.2160   -1.5630 c3        1 MOL     -0.304249
     26 C12        -3.0210   -7.1670   -0.8120 c3        1 MOL      0.206930
     27 N3         -4.4430   -7.1560   -1.3070 n4        1 MOL     -0.358379
     28 H8          0.8550   -3.7870    0.3220 hn        1 MOL      0.239335
     29 H9          1.8080   -6.5410   -0.2300 h1        1 MOL      0.101611
     30 H10         0.6350   -6.1660   -2.2820 hc        1 MOL      0.035555
     31 H11         0.2240   -4.4690   -1.6670 hc        1 MOL      0.035555
     32 H12        -1.0010   -5.4080    0.1410 hc        1 MOL     -0.009441
     33 H13        -0.4750   -6.9860   -0.2190 hc        1 MOL     -0.009441
     34 H14        -1.7930   -6.7610   -2.4480 hc        1 MOL      0.096982
     35 H15        -2.5730   -5.2650   -1.8470 hc        1 MOL      0.096982
     36 H16        -3.0270   -6.9920    0.2660 hx        1 MOL      0.045560
     37 H17        -2.5240   -8.1430   -0.8430 hx        1 MOL      0.045560
     38 H18        -5.0170   -7.6520   -0.6430 hn        1 MOL      0.264127
     39 H19        -4.7760   -6.2040   -1.2760 hn        1 MOL      0.264127
     40 H20        -4.5910   -7.4190   -2.2740 hn        1 MOL      0.264127
     41 N4          3.6630   -4.0830   -1.5020 n         1 MOL     -0.327000
     42 C13         4.9030   -3.9740   -2.2500 c3        1 MOL     -0.046044
     43 C14         6.1170   -3.3770   -1.4870 c         1 MOL      0.517090
     44 O6          7.1870   -3.0970   -2.0820 o         1 MOL     -0.591166
     45 C15         4.7220   -3.0980   -3.6010 c3        1 MOL     -0.245497
     46 C16         4.3760   -1.5740   -3.3080 c         1 MOL      0.733063
     47 O7          4.4810   -0.8050   -4.2760 o         1 MOL     -0.736207
     48 O8          4.1470   -1.1390   -2.1980 o         1 MOL     -0.736207
     49 H21         3.4240   -3.2770   -0.9530 hn        1 MOL      0.245349
     50 H22         5.2420   -4.9750   -2.4950 h1        1 MOL      0.130716
     51 H23         3.9960   -3.5650   -4.2690 hc        1 MOL      0.087561
     52 H24         5.6430   -3.1860   -4.1840 hc        1 MOL      0.087561
     53 N5          6.0260   -3.3380   -0.1950 n         1 MOL     -0.311016
     54 C17         7.0710   -2.8740    0.7310 c3        1 MOL     -0.014805
     55 C18         7.4430   -1.4150    0.6440 c         1 MOL      0.364654
     56 O9          8.4560   -0.9430    1.2450 o         1 MOL     -0.548476
     57 H25         5.0740   -3.4470    0.1560 hn        1 MOL      0.228166
     58 H26         7.9320   -3.5290    0.6040 h1        1 MOL      0.090481
     59 H27         6.7500   -3.1320    1.7500 h1        1 MOL      0.090481
     60 N6          6.7700   -0.6580   -0.2090 n         1 MOL     -0.118211
     61 C19         7.1850    0.7080   -0.5570 c3        1 MOL     -0.060768
     62 C20         6.0240    1.7600   -0.7630 c         1 MOL      0.591430
     63 O10         4.8150    1.4590   -0.7610 o         1 MOL     -0.604245
     64 C21         8.1740    0.5910   -1.6810 c3        1 MOL     -0.164815
     65 C22         7.5710    0.6370   -3.0910 c         1 MOL      0.708953
     66 N7          7.2030   -0.5270   -3.5530 n         1 MOL     -0.858255
     67 O11         7.5110    1.6850   -3.6690 o         1 MOL     -0.608109
     68 H28         6.1850   -1.1760   -0.8410 hn        1 MOL      0.346288
     69 H29         7.7660    1.1690    0.2420 h1        1 MOL      0.084881
     70 H30         8.8240   -0.2770   -1.6480 hc        1 MOL      0.050084
     71 H31         8.8470    1.4390   -1.6510 hc        1 MOL      0.050084
     72 H32         7.2250   -1.3350   -2.9540 hn        1 MOL      0.395126
     73 H33         6.5400   -0.5390   -4.3130 hn        1 MOL      0.395126
     74 N8          6.4420    3.0580   -0.8950 n         1 MOL     -0.441168
     75 C23         5.4740    4.1750   -1.0380 c3        1 MOL     -0.166117
     76 C24         4.4840    4.3140    0.1610 c         1 MOL      0.623944
     77 O12         4.8350    4.0270    1.3060 o         1 MOL     -0.522116
     78 H34         7.3620    3.2890   -0.5510 hn        1 MOL      0.330542
     79 H35         4.9160    4.0250   -1.9600 h1        1 MOL      0.113590
     80 H36         6.0280    5.1120   -1.0700 h1        1 MOL      0.113590
     81 N9          3.2790    4.7720   -0.0450 n         1 MOL     -0.592832
     82 C25         2.2240    4.8090    0.9210 c3        1 MOL      0.135673
     83 C26         1.7670    3.3570    1.2340 c         1 MOL      0.821304
     84 O13         2.1740    2.3940    0.5980 o         1 MOL     -0.647929
     85 C27         1.1050    5.6500    0.2750 c3        1 MOL     -0.355032
     86 C28         1.5410    7.0770   -0.0230 ca        1 MOL      0.145286
     87 C29         1.2050    7.7180   -1.2530 ca        1 MOL     -0.175285
     88 C30         2.2260    7.8700    0.9890 ca        1 MOL     -0.175285
     89 C31         1.4920    9.0780   -1.5270 ca        1 MOL     -0.270762
     90 C32         2.5080    9.1860    0.7260 ca        1 MOL     -0.270762
     91 C33         2.1660    9.7450   -0.5340 ca        1 MOL      0.377772
     92 O14         2.6580   11.0340   -0.7740 oh        1 MOL     -0.523700
     93 H37         3.0500    5.1640   -0.9420 hn        1 MOL      0.305984
     94 H38         2.6150    5.2430    1.8450 h1        1 MOL      0.075208
     95 H39         0.3880    5.8530    1.0770 hc        1 MOL      0.102288
     96 H40         0.6760    5.1720   -0.5960 hc        1 MOL      0.102288
     97 H41         0.6230    7.2180   -2.0170 ha        1 MOL      0.142208
     98 H42         2.4340    7.5060    1.9840 ha        1 MOL      0.142208
     99 H43         0.9740    9.5330   -2.3530 ha        1 MOL      0.174681
    100 H44         2.9630    9.8140    1.4880 ha        1 MOL      0.174681
    101 H45         3.4240   11.2550   -0.2360 ho        1 MOL      0.372647
    102 N10         0.9560    3.2380    2.2360 n         1 MOL     -0.899171
    103 C34         0.5220    2.0610    2.8820 c3        1 MOL      0.255019
    104 C35        -0.0050    0.8680    2.0060 c         1 MOL      0.721585
    105 O15         0.8390    0.2030    1.4070 o         1 MOL     -0.555036
    106 C36         1.6070    1.5260    3.9110 c3        1 MOL      0.235704
    107 C37         1.0450    0.5180    4.9490 c3        1 MOL     -0.106089
    108 C38         2.3940    2.6450    4.7360 c3        1 MOL     -0.254525
    109 C39         0.0080    1.0460    5.9540 c3        1 MOL     -0.168536
    110 H46         0.7250    4.1100    2.6960 hn        1 MOL      0.387851
    111 H47        -0.2750    2.3780    3.5500 h1        1 MOL      0.004191
    112 H48         2.3460    1.0280    3.2840 hc        1 MOL      0.020981
    113 H49         1.9030    0.0520    5.4360 hc        1 MOL      0.041378
    114 H50         0.5910   -0.3440    4.4690 hc        1 MOL      0.041378
    115 H51         1.6670    3.3200    5.1890 hc        1 MOL      0.066714
    116 H52         3.0150    2.1840    5.4990 hc        1 MOL      0.066714
    117 H53         2.9820    3.3120    4.0880 hc        1 MOL      0.066714
    118 H54        -0.3260    0.2720    6.6500 hc        1 MOL      0.039058
    119 H55         0.4630    1.8640    6.5040 hc        1 MOL      0.039058
    120 H56        -0.8150    1.3920    5.3370 hc        1 MOL      0.039058
    121 N11        -1.2100    0.4760    2.1490 n         1 MOL     -0.818625
    122 C40        -1.8120   -0.6410    1.5310 c3        1 MOL      0.456271
    123 C41        -3.3270   -0.5260    1.1620 c         1 MOL      0.473374
    124 O16        -3.8230   -1.4840    0.5590 o         1 MOL     -0.522943
    125 C42        -1.4950   -1.8330    2.4600 c3        1 MOL      0.009915
    126 O17        -1.4190   -2.9480    1.5920 oh        1 MOL     -0.637111
    127 H57        -1.7760    1.0230    2.7860 hn        1 MOL      0.332256
    128 H58        -1.2870   -0.7750    0.5910 h1        1 MOL      0.022298
    129 H59        -2.2090   -1.8130    3.2760 h1        1 MOL      0.056817
    130 H60        -0.4800   -1.5970    2.7700 h1        1 MOL      0.056817
    131 H61        -1.3760   -3.7270    2.1550 ho        1 MOL      0.438243
    132 N12        -4.0400    0.5830    1.4470 n         1 MOL     -0.636893
    133 C43        -5.3440    0.7640    0.7850 c3        1 MOL      0.343352
    134 C44        -5.1810    1.1500   -0.7250 c         1 MOL      0.569802
    135 O18        -4.1170    1.6260   -1.0390 o         1 MOL     -0.564514
    136 C45        -6.1550    1.8300    1.5140 c3        1 MOL     -0.274088
    137 H62        -3.6790    1.3570    1.9900 hn        1 MOL      0.319613
    138 H63        -5.8850   -0.1840    0.7790 h1        1 MOL      0.046471
    139 H64        -6.1860    1.5300    2.5590 hc        1 MOL      0.067326
    140 H65        -5.6390    2.7600    1.2770 hc        1 MOL      0.067326
    141 H66        -7.1380    1.7720    1.0400 hc        1 MOL      0.067326
    142 N13        -6.1800    1.0340   -1.5780 n         1 MOL     -0.624752
    143 C46        -7.5110    0.4480   -1.3790 c3        1 MOL      0.526518
    144 C47        -8.6070    1.1570   -2.1160 c         1 MOL      0.239338
    145 O19        -8.3420    1.8370   -3.0800 o         1 MOL     -0.484712
    146 C48        -7.3320   -1.0020   -1.7780 c3        1 MOL     -0.403949
    147 H67        -6.0720    1.5590   -2.4270 hn        1 MOL      0.327631
    148 H68        -7.7630    0.4420   -0.3140 h1        1 MOL     -0.093633
    149 H69        -6.5420   -1.4830   -1.1990 hc        1 MOL      0.108240
    150 H70        -8.2240   -1.6190   -1.7380 hc        1 MOL      0.108240
    151 H71        -7.0500   -0.9330   -2.8330 hc        1 MOL      0.108240
    152 N14        -9.9320    0.9570   -1.8220 n         1 MOL     -0.201688
    153 C49       -10.5310    0.1160   -0.7240 c3        1 MOL     -0.255988
    154 C50       -10.5700    0.8950    0.6160 c         1 MOL      0.612461
    155 O20       -10.7880    0.2270    1.6460 o         1 MOL     -0.544700
    156 C51       -11.8660   -0.4890   -1.1340 c3        1 MOL      0.103765
    157 C52       -12.9360    0.4590   -1.5330 c3        1 MOL     -0.392482
    158 C53       -14.2230   -0.3230   -1.8860 c         1 MOL      0.829613
    159 O21       -15.2630    0.2840   -1.9810 o         1 MOL     -0.668581
    160 O22       -14.2940   -1.5370   -2.1510 o         1 MOL     -0.668581
    161 H72       -10.5570    1.5820   -2.3220 hn        1 MOL      0.251940
    162 H73        -9.8540   -0.7410   -0.6350 h1        1 MOL      0.096699
    163 H74       -12.2210   -1.0550   -0.2630 hc        1 MOL      0.028425
    164 H75       -11.6320   -1.2770   -1.8520 hc        1 MOL      0.028425
    165 H76       -12.5150    1.0720   -2.3320 hc        1 MOL      0.081495
    166 H77       -13.1600    1.0990   -0.6780 hc        1 MOL      0.081495
    167 N15       -10.4210    2.2350    0.7650 n         1 MOL     -0.320959
    168 C54       -10.2500    2.9070    2.0660 c3        1 MOL     -0.164971
    169 H78       -10.3670    3.9840    1.9360 h1        1 MOL      0.096317
    170 H79       -11.0020    2.5420    2.7660 h1        1 MOL      0.096317
    171 H80        -9.2550    2.6950    2.4570 h1        1 MOL      0.096317
    172 H81       -10.3160    2.7730   -0.0870 hn        1 MOL      0.226977
    173 Ca1         2.4840    0.3750   -0.9680 Ca        1 MOL      1.836754
    174 O23         0.5710    1.9340   -1.8250 oh        1 MOL     -0.886942
    175 H82        -0.2960    2.1930   -1.5060 ho        1 MOL      0.433510
    176 H83         0.7790    2.5840   -2.4830 ho        1 MOL      0.433510
    177 O24         0.4740   -1.0830   -2.0280 oh        1 MOL     -0.886942
    178 H84         0.4620   -2.0310   -2.1630 ho        1 MOL      0.433510
    179 H85        -0.4600   -0.8480   -1.9260 ho        1 MOL      0.433510
    180 O25         3.3320    1.3740   -3.3760 oh        1 MOL     -0.886942
    181 H86         3.7590    0.5760   -3.6950 ho        1 MOL      0.433510
    182 H87         3.6490    2.0600   -3.9630 ho        1 MOL      0.433510
@<TRIPOS>BOND
     1    1    2 1   
     2    1    4 1   
     3    1    5 1   
     4    1    6 1   
     5    2    3 2   
     6    2    7 1   
     7    7    8 1   
     8    7   15 1   
     9    8    9 1   
    10    8   11 1   
    11    8   16 1   
    12    9   10 2   
    13    9   19 1   
    14   11   12 1   
    15   11   17 1   
    16   11   18 1   
    17   12   13 1   
    18   12   14 1   
    19   19   20 1   
    20   19   28 1   
    21   20   21 1   
    22   20   23 1   
    23   20   29 1   
    24   21   22 2   
    25   21   41 1   
    26   23   24 1   
    27   23   30 1   
    28   23   31 1   
    29   24   25 1   
    30   24   32 1   
    31   24   33 1   
    32   25   26 1   
    33   25   34 1   
    34   25   35 1   
    35   26   27 1   
    36   26   36 1   
    37   26   37 1   
    38   27   38 1   
    39   27   39 1   
    40   27   40 1   
    41   41   42 1   
    42   41   49 1   
    43   42   43 1   
    44   42   45 1   
    45   42   50 1   
    46   43   44 2   
    47   43   53 1   
    48   45   46 1   
    49   45   51 1   
    50   45   52 1   
    51   46   47 1   
    52   46   48 1   
    53   53   54 1   
    54   53   57 1   
    55   54   55 1   
    56   54   58 1   
    57   54   59 1   
    58   55   56 2   
    59   55   60 1   
    60   60   61 1   
    61   60   68 1   
    62   61   62 1   
    63   61   64 1   
    64   61   69 1   
    65   62   63 2   
    66   62   74 1   
    67   64   65 1   
    68   64   70 1   
    69   64   71 1   
    70   65   66 1   
    71   65   67 2   
    72   66   72 1   
    73   66   73 1   
    74   74   75 1   
    75   74   78 1   
    76   75   76 1   
    77   75   79 1   
    78   75   80 1   
    79   76   77 2   
    80   76   81 1   
    81   81   82 1   
    82   81   93 1   
    83   82   83 1   
    84   82   85 1   
    85   82   94 1   
    86   83   84 2   
    87   83  102 1   
    88   85   86 1   
    89   85   95 1   
    90   85   96 1   
    91   86   87 ar  
    92   86   88 ar  
    93   87   89 ar  
    94   87   97 1   
    95   88   90 ar  
    96   88   98 1   
    97   89   91 ar  
    98   89   99 1   
    99   90   91 ar  
   100   90  100 1   
   101   91   92 1   
   102   92  101 1   
   103  102  103 1   
   104  102  110 1   
   105  103  104 1   
   106  103  106 1   
   107  103  111 1   
   108  104  105 2   
   109  104  121 1   
   110  106  107 1   
   111  106  108 1   
   112  106  112 1   
   113  107  109 1   
   114  107  113 1   
   115  107  114 1   
   116  108  115 1   
   117  108  116 1   
   118  108  117 1   
   119  109  118 1   
   120  109  119 1   
   121  109  120 1   
   122  121  122 1   
   123  121  127 1   
   124  122  123 1   
   125  122  125 1   
   126  122  128 1   
   127  123  124 2   
   128  123  132 1   
   129  125  126 1   
   130  125  129 1   
   131  125  130 1   
   132  126  131 1   
   133  132  133 1   
   134  132  137 1   
   135  133  134 1   
   136  133  136 1   
   137  133  138 1   
   138  134  135 2   
   139  134  142 1   
   140  136  139 1   
   141  136  140 1   
   142  136  141 1   
   143  142  143 1   
   144  142  147 1   
   145  143  144 1   
   146  143  146 1   
   147  143  148 1   
   148  144  145 2   
   149  144  152 1   
   150  146  149 1   
   151  146  150 1   
   152  146  151 1   
   153  152  153 1   
   154  152  161 1   
   155  153  154 1   
   156  153  156 1   
   157  153  162 1   
   158  154  155 2   
   159  154  167 1   
   160  156  157 1   
   161  156  163 1   
   162  156  164 1   
   163  157  158 1   
   164  157  165 1   
   165  157  166 1   
   166  158  159 1   
   167  158  160 1   
   168  167  168 1   
   169  167  172 1   
   170  168  169 1   
   171  168  170 1   
   172  168  171 1   
   173  174  175 1   
   174  174  176 1   
   175  177  178 1   
   176  177  179 1   
   177  180  181 1   
   178  180  182 1   
@<TRIPOS>SUBSTRUCTURE
     1 MOL         1 TEMP              0 ****  ****    0 ROOT
