@<TRIPOS>MOLECULE
MOL
  181   177     1     0     0
SMALL
resp


@<TRIPOS>ATOM
      1 C1         10.7130    7.4500    0.0110 c3        1 MOL     -0.311596
      2 C2          9.6120    6.3780    0.3730 c         1 MOL      0.579073
      3 O1          8.6740    6.6600    1.0900 o         1 MOL     -0.578744
      4 H1         11.5330    6.9640   -0.5180 hc        1 MOL      0.080894
      5 H2         10.2760    8.2200   -0.6250 hc        1 MOL      0.080894
      6 H3         11.0920    7.9060    0.9260 hc        1 MOL      0.080894
      7 N1          9.6250    5.1200    0.0230 n         1 MOL     -0.366973
      8 C3         10.6230    4.3550   -0.7050 c3        1 MOL      0.162819
      9 C4         11.3440    3.2280    0.1470 c         1 MOL      0.359883
     10 O2         12.0220    2.3690   -0.4080 o         1 MOL     -0.508794
     11 C5          9.9510    3.8340   -1.9420 c3        1 MOL     -0.175638
     12 C6          9.0560    2.6430   -1.7470 c         1 MOL      0.729864
     13 O3          8.9370    1.8290   -2.6830 o         1 MOL     -0.743082
     14 O4          8.5130    2.4030   -0.6600 o         1 MOL     -0.743082
     15 H4          8.9970    4.4630    0.4740 hn        1 MOL      0.303410
     16 H5         11.4250    4.9840   -1.0760 h1        1 MOL      0.051365
     17 H6         10.7410    3.6820   -2.6730 hc        1 MOL      0.026899
     18 H7          9.3000    4.6400   -2.2860 hc        1 MOL      0.026899
     19 N2         11.0850    3.2130    1.4200 n         1 MOL     -0.455264
     20 C7         11.6030    2.3440    2.4020 c3        1 MOL      0.400600
     21 C8         10.6710    1.1470    2.7750 c         1 MOL      0.328298
     22 O5         10.9190    0.4540    3.7830 o         1 MOL     -0.529490
     23 C9         12.0850    3.1610    3.6240 c3        1 MOL     -0.265182
     24 H8         10.4250    3.9220    1.7120 hn        1 MOL      0.216074
     25 H9         12.5090    1.8310    2.0840 h1        1 MOL      0.010429
     26 H10        12.5140    2.4790    4.3610 hc        1 MOL      0.066959
     27 H11        12.7850    3.9500    3.3650 hc        1 MOL      0.066959
     28 H12        11.2350    3.5640    4.1800 hc        1 MOL      0.066959
     29 N3          9.5340    0.8040    2.0810 n         1 MOL     -0.305517
     30 C10         8.7700   -0.4810    2.2760 c3        1 MOL      0.158506
     31 C11         8.6790   -1.3130    1.0100 c         1 MOL      0.488634
     32 O6          8.7350   -0.8160   -0.1490 o         1 MOL     -0.603260
     33 C12         7.3440   -0.1290    2.7500 c3        1 MOL     -0.268863
     34 C13         6.3970    0.9130    2.0300 c         1 MOL      0.637575
     35 O7          5.6640    1.7310    2.6370 o         1 MOL     -0.639932
     36 O8          6.3750    0.8480    0.8140 o         1 MOL     -0.639932
     37 H13         9.3440    1.2880    1.2200 hn        1 MOL      0.277406
     38 H14         9.2390   -1.1950    2.9480 h1        1 MOL      0.016738
     39 H15         7.4830    0.2790    3.7550 hc        1 MOL      0.058600
     40 H16         6.7450   -1.0200    2.9060 hc        1 MOL      0.058600
     41 N4          8.4980   -2.6140    1.2390 n         1 MOL     -0.355364
     42 C14         8.1470   -3.5080    0.2050 c3        1 MOL     -0.172309
     43 C15         6.7920   -3.2140   -0.4370 c         1 MOL      0.753517
     44 O9          6.2930   -2.0960   -0.6130 o         1 MOL     -0.592600
     45 H17         8.5110   -2.9700    2.1850 hn        1 MOL      0.295699
     46 H18         8.2020   -4.5170    0.6160 h1        1 MOL      0.105120
     47 H19         8.8870   -3.5000   -0.6010 h1        1 MOL      0.105120
     48 N5          6.1420   -4.3080   -0.9320 n         1 MOL     -0.688015
     49 C16         4.9200   -4.3730   -1.7460 c3        1 MOL      0.312333
     50 C17         3.6270   -4.6290   -0.9110 c         1 MOL      0.657586
     51 O10         3.7380   -5.2220    0.1610 o         1 MOL     -0.544717
     52 C18         5.0310   -5.2850   -2.9570 c3        1 MOL     -0.370351
     53 C19         6.3660   -5.0810   -3.6980 c         1 MOL      0.858885
     54 N6          6.8380   -6.0590   -4.4000 n         1 MOL     -0.850535
     55 O11         7.0340   -4.0310   -3.6190 o         1 MOL     -0.663403
     56 H20         6.5400   -5.2020   -0.6590 hn        1 MOL      0.298697
     57 H21         4.8250   -3.4050   -2.2480 h1        1 MOL      0.012287
     58 H22         4.2430   -5.0740   -3.6780 hc        1 MOL      0.075651
     59 H23         5.0140   -6.2980   -2.5400 hc        1 MOL      0.075651
     60 H24         6.6270   -7.0280   -4.1980 hn        1 MOL      0.381126
     61 H25         7.6510   -5.7940   -4.9360 hn        1 MOL      0.381126
     62 N7          2.4830   -4.1720   -1.3370 n         1 MOL     -0.674614
     63 C20         1.1780   -4.3130   -0.6020 c3        1 MOL      0.042500
     64 C21         0.9800   -3.5670    0.7560 c         1 MOL      0.729278
     65 O12         1.9290   -2.9240    1.1520 o         1 MOL     -0.537965
     66 H26         2.3970   -3.7750   -2.2640 hn        1 MOL      0.353260
     67 H27         1.0680   -5.3990   -0.5400 h1        1 MOL      0.092868
     68 H28         0.3900   -3.8070   -1.1520 h1        1 MOL      0.092868
     69 N8         -0.1070   -3.6760    1.4900 n         1 MOL     -0.708585
     70 C22        -1.1870   -4.6080    1.2300 c3        1 MOL      0.128015
     71 C23        -2.5760   -3.9390    1.0520 c         1 MOL      0.703271
     72 O13        -3.4110   -4.4270    0.3070 o         1 MOL     -0.630378
     73 C24        -1.3590   -5.7460    2.2790 c3        1 MOL      0.469904
     74 C25        -0.1500   -6.7640    2.4350 c3        1 MOL     -0.551867
     75 O14        -1.7450   -5.3520    3.5850 oh        1 MOL     -0.630766
     76 H29        -0.0660   -3.2000    2.3850 hn        1 MOL      0.379260
     77 H30        -1.0230   -5.0960    0.2760 h1        1 MOL     -0.049514
     78 H31        -2.2680   -6.2890    2.0250 h1        1 MOL     -0.042503
     79 H32        -2.1830   -6.0880    4.0160 ho        1 MOL      0.407562
     80 H33         0.6060   -6.2310    3.0040 hc        1 MOL      0.130691
     81 H34        -0.5840   -7.5720    3.0260 hc        1 MOL      0.130691
     82 H35         0.1140   -7.3120    1.5340 hc        1 MOL      0.130691
     83 N9         -2.8060   -2.8000    1.6780 n         1 MOL     -0.615030
     84 C26        -4.0450   -2.0100    1.6700 c3        1 MOL      0.291217
     85 C27        -3.8630   -0.6660    0.9690 c         1 MOL      0.602943
     86 O15        -2.8590   -0.0550    1.0830 o         1 MOL     -0.570375
     87 C28        -4.5050   -1.8560    3.1540 c3        1 MOL     -0.060756
     88 C29        -4.5800   -3.1900    4.0410 c3        1 MOL      0.018031
     89 C30        -5.9170   -1.1890    3.2050 c3        1 MOL     -0.010980
     90 C31        -5.5890   -4.2450    3.6550 c3        1 MOL     -0.063726
     91 H36        -2.0580   -2.5530    2.2990 hn        1 MOL      0.288007
     92 H37        -4.8590   -2.4950    1.1390 h1        1 MOL      0.074403
     93 H38        -3.7860   -1.1710    3.5970 hc        1 MOL      0.023431
     94 H39        -4.8800   -2.9260    5.0610 hc        1 MOL     -0.011450
     95 H40        -3.5690   -3.5830    4.2090 hc        1 MOL     -0.011450
     96 H41        -5.9110   -0.2120    2.7170 hc        1 MOL      0.019715
     97 H42        -6.6620   -1.8530    2.7660 hc        1 MOL      0.019715
     98 H43        -6.2350   -1.0070    4.2270 hc        1 MOL      0.019715
     99 H44        -5.4140   -4.4910    2.6010 hc        1 MOL     -0.000007
    100 H45        -5.3660   -5.1570    4.2030 hc        1 MOL     -0.000007
    101 H46        -6.5990   -3.8830    3.8020 hc        1 MOL     -0.000007
    102 N10        -4.7340   -0.2800   -0.0040 n         1 MOL     -0.544500
    103 C32        -5.9130   -0.9440   -0.5960 c3        1 MOL      0.087181
    104 C33        -6.9950    0.0610   -1.0020 c         1 MOL      0.603328
    105 O16        -6.5930    1.1240   -1.3810 o         1 MOL     -0.487532
    106 C34        -5.4980   -1.9300   -1.7030 c3        1 MOL     -0.235709
    107 C35        -5.0570   -1.1030   -2.9510 c         1 MOL      0.717468
    108 O17        -5.7680   -1.2430   -3.9530 o         1 MOL     -0.719925
    109 O18        -4.0220   -0.4180   -2.8910 o         1 MOL     -0.719925
    110 H47        -4.3290    0.4750   -0.5270 hn        1 MOL      0.349654
    111 H48        -6.4090   -1.4990    0.1960 h1        1 MOL     -0.034588
    112 H49        -6.2920   -2.5860   -2.0790 hc        1 MOL      0.037756
    113 H50        -4.7350   -2.5840   -1.2760 hc        1 MOL      0.037756
    114 N11        -8.2790   -0.3380   -0.8970 n         1 MOL     -0.569001
    115 C36        -9.4810    0.5090   -1.2000 c3        1 MOL      0.414417
    116 C37       -10.1000    1.0260    0.0880 c         1 MOL      0.096225
    117 O19        -9.9080    0.5120    1.1560 o         1 MOL     -0.449220
    118 C38       -10.4780   -0.3630   -2.0290 c3        1 MOL     -0.369348
    119 C39       -11.1520   -1.5860   -1.3230 ca        1 MOL      0.254211
    120 C40       -12.4750   -1.5420   -0.8140 ca        1 MOL     -0.259438
    121 C41       -10.4660   -2.8110   -1.4570 ca        1 MOL     -0.259438
    122 C42       -12.9630   -2.6560   -0.1610 ca        1 MOL      0.005055
    123 C43       -11.0420   -3.9510   -0.9300 ca        1 MOL      0.005055
    124 C44       -12.3190   -3.9300   -0.2950 ca        1 MOL     -0.280736
    125 H51        -8.5390   -1.1800   -0.3880 hn        1 MOL      0.325162
    126 H52        -9.2230    1.3950   -1.7710 h1        1 MOL     -0.010705
    127 H53        -9.8490   -0.6620   -2.8660 hc        1 MOL      0.097656
    128 H54       -11.3160    0.2070   -2.4410 hc        1 MOL      0.097656
    129 H55       -13.0520   -0.6490   -0.9810 ha        1 MOL      0.138285
    130 H56        -9.4870   -2.8160   -1.9230 ha        1 MOL      0.138285
    131 H57       -13.9320   -2.5760    0.3060 ha        1 MOL      0.081562
    132 H58       -10.5430   -4.9060   -0.9720 ha        1 MOL      0.081562
    133 H59       -12.7670   -4.8010    0.1590 ha        1 MOL      0.139521
    134 N12       -10.8520    2.1160   -0.0650 n         1 MOL      0.213209
    135 C45       -10.8930    3.1430   -1.1130 c3        1 MOL     -0.104720
    136 C46        -9.5780    4.0070   -1.2040 c         1 MOL      0.394029
    137 O20        -9.3940    4.7330   -2.1810 o         1 MOL     -0.506932
    138 C47       -12.1310    4.0720   -0.7880 c3        1 MOL     -0.303986
    139 C48       -12.8910    3.3530    0.2680 c3        1 MOL      0.128041
    140 C49       -11.8760    2.3460    0.9270 c3        1 MOL     -0.150620
    141 H60       -11.1270    2.6630   -2.0620 h1        1 MOL      0.068342
    142 H61       -11.7540    4.9810   -0.3230 hc        1 MOL      0.117256
    143 H62       -12.8050    4.2250   -1.6310 hc        1 MOL      0.117256
    144 H63       -13.3680    4.0110    0.9940 hc        1 MOL     -0.017764
    145 H64       -13.6710    2.7550   -0.2080 hc        1 MOL     -0.017764
    146 H65       -11.4170    2.6330    1.8690 h1        1 MOL      0.056675
    147 H66       -12.4690    1.4480    1.0850 h1        1 MOL      0.056675
    148 N13        -8.7970    3.9160   -0.1420 n         1 MOL     -0.266715
    149 C50        -7.4260    4.4990   -0.1310 c3        1 MOL      0.097094
    150 C51        -7.3350    5.9080   -0.8120 c         1 MOL      0.460640
    151 O21        -7.7380    6.9110   -0.1990 o         1 MOL     -0.574163
    152 C52        -6.9730    4.5360    1.3580 c3        1 MOL     -0.000351
    153 C53        -6.9010    3.1170    1.9370 c3        1 MOL     -0.022867
    154 C54        -6.3770    3.1520    3.3700 c         1 MOL      0.699789
    155 O22        -5.2720    3.6680    3.5830 o         1 MOL     -0.723548
    156 O23        -7.1440    2.6600    4.2460 o         1 MOL     -0.723548
    157 H67        -9.2500    3.5290    0.6760 hn        1 MOL      0.257657
    158 H68        -6.7520    3.7800   -0.5920 h1        1 MOL      0.081941
    159 H69        -7.6770    5.1940    1.8670 hc        1 MOL      0.002360
    160 H70        -5.9520    4.8910    1.4350 hc        1 MOL      0.002360
    161 H71        -6.2520    2.4740    1.3380 hc        1 MOL     -0.037763
    162 H72        -7.8530    2.5820    1.9850 hc        1 MOL     -0.037763
    163 N14        -6.7810    6.1180   -2.0060 n         1 MOL     -0.394169
    164 C55        -6.2870    5.0250   -2.9210 c3        1 MOL     -0.103432
    165 H73        -5.6810    4.3200   -2.3520 h1        1 MOL      0.075315
    166 H74        -7.1390    4.5020   -3.3550 h1        1 MOL      0.075315
    167 H75        -5.6830    5.4610   -3.7170 h1        1 MOL      0.075315
    168 H76        -6.7440    7.0610   -2.3620 hn        1 MOL      0.286007
    169 Ca1         6.9760    0.4770   -1.5390 Ca        1 MOL      1.710980
    170 O24         4.3760   -0.0310   -1.9030 oh        1 MOL     -0.820669
    171 H77         3.8450   -0.5890   -2.4610 ho        1 MOL      0.408919
    172 H78         4.1510   -0.2960   -1.0150 ho        1 MOL      0.408919
    173 O25         7.3940   -1.4690   -3.2270 oh        1 MOL     -0.820669
    174 H79         7.7350   -1.3500   -4.1140 ho        1 MOL      0.408919
    175 H80         7.2800   -2.4160   -3.1470 ho        1 MOL      0.408919
    176 O26         5.8180    3.1320   -1.7110 oh        1 MOL     -0.820669
    177 H81         5.4230    3.4670   -2.5120 ho        1 MOL      0.408919
    178 H82         5.4710    3.6850   -1.0120 ho        1 MOL      0.408919
    179 O27         6.4940    1.2130   -4.2000 oh        1 MOL     -0.820669
    180 H83         7.1440    1.4760   -4.8470 ho        1 MOL      0.408919
    181 H84         5.7400    1.7820   -4.3660 ho        1 MOL      0.408919
@<TRIPOS>BOND
     1    1    2 1   
     2    1    4 1   
     3    1    5 1   
     4    1    6 1   
     5    2    3 2   
     6    2    7 1   
     7    7    8 1   
     8    7   15 1   
     9    8    9 1   
    10    8   11 1   
    11    8   16 1   
    12    9   10 2   
    13    9   19 1   
    14   11   12 1   
    15   11   17 1   
    16   11   18 1   
    17   12   13 1   
    18   12   14 1   
    19   19   20 1   
    20   19   24 1   
    21   20   21 1   
    22   20   23 1   
    23   20   25 1   
    24   21   22 2   
    25   21   29 1   
    26   23   26 1   
    27   23   27 1   
    28   23   28 1   
    29   29   30 1   
    30   29   37 1   
    31   30   31 1   
    32   30   33 1   
    33   30   38 1   
    34   31   32 2   
    35   31   41 1   
    36   33   34 1   
    37   33   39 1   
    38   33   40 1   
    39   34   35 1   
    40   34   36 1   
    41   41   42 1   
    42   41   45 1   
    43   42   43 1   
    44   42   46 1   
    45   42   47 1   
    46   43   44 2   
    47   43   48 1   
    48   48   49 1   
    49   48   56 1   
    50   49   50 1   
    51   49   52 1   
    52   49   57 1   
    53   50   51 2   
    54   50   62 1   
    55   52   53 1   
    56   52   58 1   
    57   52   59 1   
    58   53   54 1   
    59   53   55 2   
    60   54   60 1   
    61   54   61 1   
    62   62   63 1   
    63   62   66 1   
    64   63   64 1   
    65   63   67 1   
    66   63   68 1   
    67   64   65 2   
    68   64   69 1   
    69   69   70 1   
    70   69   76 1   
    71   70   71 1   
    72   70   73 1   
    73   70   77 1   
    74   71   72 2   
    75   71   83 1   
    76   73   74 1   
    77   73   75 1   
    78   73   78 1   
    79   74   80 1   
    80   74   81 1   
    81   74   82 1   
    82   75   79 1   
    83   83   84 1   
    84   83   91 1   
    85   84   85 1   
    86   84   87 1   
    87   84   92 1   
    88   85   86 2   
    89   85  102 1   
    90   87   88 1   
    91   87   89 1   
    92   87   93 1   
    93   88   90 1   
    94   88   94 1   
    95   88   95 1   
    96   89   96 1   
    97   89   97 1   
    98   89   98 1   
    99   90   99 1   
   100   90  100 1   
   101   90  101 1   
   102  102  103 1   
   103  102  110 1   
   104  103  104 1   
   105  103  106 1   
   106  103  111 1   
   107  104  105 2   
   108  104  114 1   
   109  106  107 1   
   110  106  112 1   
   111  106  113 1   
   112  107  108 1   
   113  107  109 1   
   114  114  115 1   
   115  114  125 1   
   116  115  116 1   
   117  115  118 1   
   118  115  126 1   
   119  116  117 2   
   120  116  134 1   
   121  118  119 1   
   122  118  127 1   
   123  118  128 1   
   124  119  120 ar  
   125  119  121 ar  
   126  120  122 ar  
   127  120  129 1   
   128  121  123 ar  
   129  121  130 1   
   130  122  124 ar  
   131  122  131 1   
   132  123  124 ar  
   133  123  132 1   
   134  124  133 1   
   135  134  135 1   
   136  134  140 1   
   137  135  136 1   
   138  135  138 1   
   139  135  141 1   
   140  136  137 2   
   141  136  148 1   
   142  138  139 1   
   143  138  142 1   
   144  138  143 1   
   145  139  140 1   
   146  139  144 1   
   147  139  145 1   
   148  140  146 1   
   149  140  147 1   
   150  148  149 1   
   151  148  157 1   
   152  149  150 1   
   153  149  152 1   
   154  149  158 1   
   155  150  151 2   
   156  150  163 1   
   157  152  153 1   
   158  152  159 1   
   159  152  160 1   
   160  153  154 1   
   161  153  161 1   
   162  153  162 1   
   163  154  155 1   
   164  154  156 1   
   165  163  164 1   
   166  163  168 1   
   167  164  165 1   
   168  164  166 1   
   169  164  167 1   
   170  170  171 1   
   171  170  172 1   
   172  173  174 1   
   173  173  175 1   
   174  176  177 1   
   175  176  178 1   
   176  179  180 1   
   177  179  181 1   
@<TRIPOS>SUBSTRUCTURE
     1 MOL         1 TEMP              0 ****  ****    0 ROOT
