@<TRIPOS>MOLECULE
MOL
  198   191     1     0     0
SMALL
resp


@<TRIPOS>ATOM
      1 C1          6.5620    0.5720    5.7180 c3        1 MOL     -0.189279
      2 C2          5.9470    0.5660    4.3200 c         1 MOL      0.876385
      3 O1          5.5960    1.7010    3.8700 o         1 MOL     -0.674195
      4 H1          7.2170   -0.2930    5.8310 hc        1 MOL      0.035114
      5 H2          7.1400    1.4850    5.8570 hc        1 MOL      0.035114
      6 H3          5.7690    0.5250    6.4650 hc        1 MOL      0.035114
      7 N1          5.8290   -0.5130    3.5850 n         1 MOL     -0.722971
      8 C3          5.2350   -0.6650    2.2540 c3        1 MOL      0.747596
      9 C4          3.7470   -0.6180    2.1710 c         1 MOL     -0.107860
     10 O2          3.2230   -0.8290    1.0840 o         1 MOL     -0.035200
     11 C5          5.7010   -2.0050    1.6430 c3        1 MOL     -0.188748
     12 C6          7.1710   -2.3590    1.8090 c         1 MOL      0.559018
     13 O3          7.6890   -2.4210    2.9710 o         1 MOL     -0.644936
     14 O4          7.9210   -2.4130    0.7750 o         1 MOL     -0.644936
     15 H4          6.4460   -1.2660    3.8500 hn        1 MOL      0.240993
     16 H5          5.6410    0.1670    1.6710 h1        1 MOL     -0.025135
     17 H6          5.4620   -1.8500    0.5920 hc        1 MOL     -0.026402
     18 H7          5.0710   -2.7950    2.0490 hc        1 MOL     -0.026402
     19 N2          3.0060   -0.3740    3.2250 n         1 MOL     -0.373324
     20 C7          1.5580   -0.2500    3.1920 c3        1 MOL      0.385343
     21 C8          1.1510    1.2120    2.8460 c         1 MOL      0.392602
     22 O5          1.7600    2.0860    3.4940 o         1 MOL     -0.491142
     23 C9          1.0350   -0.8370    4.5210 c3        1 MOL     -0.084192
     24 C10         1.0380   -2.3870    4.4980 c3        1 MOL     -0.013245
     25 C11         0.2620   -2.9190    5.6220 c3        1 MOL      0.131936
     26 C12         0.2890   -4.4230    5.6940 c3        1 MOL      0.087628
     27 N3         -0.4250   -5.0110    6.8550 n4        1 MOL     -0.445430
     28 H8          3.4850   -0.0080    4.0350 hn        1 MOL      0.218610
     29 H9          1.2280   -0.9070    2.3820 h1        1 MOL     -0.018379
     30 H10         0.0310   -0.4560    4.6940 hc        1 MOL      0.028233
     31 H11         1.5730   -0.4150    5.3740 hc        1 MOL      0.028233
     32 H12         2.0230   -2.7800    4.7520 hc        1 MOL     -0.005648
     33 H13         0.7290   -2.7880    3.5350 hc        1 MOL     -0.005648
     34 H14        -0.7850   -2.6350    5.5310 hc        1 MOL     -0.012809
     35 H15         0.5980   -2.5910    6.6070 hc        1 MOL     -0.012809
     36 H16         1.3250   -4.7540    5.6220 hx        1 MOL      0.060979
     37 H17        -0.2630   -4.7380    4.8130 hx        1 MOL      0.060979
     38 H18        -0.2670   -4.4550    7.6750 hn        1 MOL      0.324504
     39 H19        -1.3990   -5.0060    6.6000 hn        1 MOL      0.324504
     40 H20        -0.1070   -5.9620    6.9540 hn        1 MOL      0.324504
     41 N4          0.1250    1.5390    2.0160 n         1 MOL     -0.273910
     42 C13        -0.8540    0.6840    1.3210 c3        1 MOL     -0.105938
     43 C14        -1.5680   -0.4050    2.1000 c         1 MOL      0.606726
     44 O6         -1.0850   -1.5070    2.2860 o         1 MOL     -0.548887
     45 C15        -0.2860    0.1410   -0.0160 c3        1 MOL     -0.333428
     46 C16         0.2090    1.2230   -1.0130 c         1 MOL      0.731513
     47 O7         -0.0920    2.4390   -0.8550 o         1 MOL     -0.716834
     48 O8          0.9560    0.9250   -2.0140 o         1 MOL     -0.716834
     49 H21         0.1080    2.4640    1.6090 hn        1 MOL      0.160276
     50 H22        -1.7050    1.2040    0.8710 h1        1 MOL      0.031663
     51 H23        -1.0870   -0.3580   -0.5660 hc        1 MOL      0.137193
     52 H24         0.4850   -0.5680    0.2710 hc        1 MOL      0.137193
     53 N5         -2.7830   -0.1650    2.6840 n         1 MOL     -0.449092
     54 C17        -3.5930    1.0610    2.5140 c3        1 MOL     -0.034561
     55 C18        -4.8670    1.0290    3.3810 c         1 MOL      0.608139
     56 O9         -5.0080    0.2210    4.2740 o         1 MOL     -0.560812
     57 H25        -3.3240   -0.8170    3.2290 hn        1 MOL      0.285198
     58 H26        -3.8770    1.1560    1.4590 h1        1 MOL      0.067876
     59 H27        -2.9220    1.8620    2.7980 h1        1 MOL      0.067876
     60 N6         -5.6970    2.0580    3.3170 n         1 MOL     -0.464921
     61 C19        -5.6110    3.1530    2.3450 c3        1 MOL      0.021559
     62 C20        -6.3100    2.8320    0.9740 c         1 MOL      0.531938
     63 O10        -7.0930    1.8910    0.9200 o         1 MOL     -0.415364
     64 C21        -6.2300    4.4360    2.9790 c3        1 MOL     -0.118572
     65 C22        -7.6970    4.1110    3.3710 c         1 MOL      0.652842
     66 O11        -8.0170    3.7510    4.5900 o         1 MOL     -0.646103
     67 O12        -8.5370    4.1970    2.4720 o         1 MOL     -0.646103
     68 H28        -6.5150    2.0430    3.8990 hn        1 MOL      0.300084
     69 H29        -4.5850    3.4700    2.1960 h1        1 MOL      0.001256
     70 H30        -6.2430    5.1840    2.1860 hc        1 MOL      0.008391
     71 H31        -5.7160    4.8910    3.8190 hc        1 MOL      0.008391
     72 N7         -6.0130    3.5920   -0.0960 n         1 MOL     -0.415914
     73 C23        -6.5750    3.4190   -1.4500 c3        1 MOL     -0.197903
     74 C24        -6.2520    2.0960   -2.1090 c         1 MOL      0.427370
     75 O13        -7.1370    1.4710   -2.6880 o         1 MOL     -0.504943
     76 H32        -5.3730    4.3440    0.0870 hn        1 MOL      0.267415
     77 H33        -6.2330    4.3310   -1.9270 h1        1 MOL      0.149073
     78 H34        -7.6650    3.5060   -1.4440 h1        1 MOL      0.149073
     79 N8         -5.0400    1.6370   -2.1270 n         1 MOL     -0.386229
     80 C25        -4.7060    0.3080   -2.5620 c3        1 MOL      0.054297
     81 C26        -5.0940   -0.7460   -1.4880 c         1 MOL      0.654764
     82 O14        -4.9700   -0.4470   -0.2840 o         1 MOL     -0.487723
     83 C27        -3.2520    0.1570   -3.0160 c3        1 MOL      0.611383
     84 C28        -2.8800    1.1270   -4.1990 c3        1 MOL     -0.410737
     85 O15        -3.1270   -1.1530   -3.6110 oh        1 MOL     -0.652979
     86 H35        -4.2640    2.1660   -1.7640 hn        1 MOL      0.210360
     87 H36        -5.2460    0.1320   -3.4940 h1        1 MOL      0.054595
     88 H37        -2.5470    0.2260   -2.1910 h1        1 MOL     -0.081970
     89 H38        -2.1910   -1.3220   -3.4860 ho        1 MOL      0.395199
     90 H39        -2.0620    0.7050   -4.7840 hc        1 MOL      0.091200
     91 H40        -3.6680    1.1060   -4.9560 hc        1 MOL      0.091200
     92 H41        -2.8460    2.1000   -3.7230 hc        1 MOL      0.091200
     93 N9         -5.3360   -1.9630   -1.9240 n         1 MOL     -0.905900
     94 C29        -5.7800   -3.1310   -1.1220 c3        1 MOL      0.232517
     95 C30        -4.6630   -4.1790   -0.8700 c         1 MOL      0.443927
     96 O16        -4.8600   -5.1200   -0.1260 o         1 MOL     -0.566864
     97 C31        -7.0860   -3.6320   -1.7820 c3        1 MOL      0.018777
     98 C32        -8.1290   -2.5790   -1.4360 c3        1 MOL      0.141581
     99 C33        -7.5410   -5.0470   -1.2230 c3        1 MOL     -0.168078
    100 C34        -9.5670   -2.9010   -1.8350 c3        1 MOL     -0.444296
    101 H42        -5.3040   -2.0040   -2.9340 hn        1 MOL      0.379411
    102 H43        -6.0860   -2.8070   -0.1260 h1        1 MOL      0.060144
    103 H44        -7.0030   -3.7100   -2.8640 hc        1 MOL      0.030977
    104 H45        -7.9150   -1.5740   -1.7840 hc        1 MOL      0.039119
    105 H46        -8.1550   -2.3450   -0.3670 hc        1 MOL      0.039119
    106 H47        -8.5520   -5.3230   -1.4830 hc        1 MOL      0.040060
    107 H48        -6.8020   -5.7900   -1.5490 hc        1 MOL      0.040060
    108 H49        -7.5530   -4.9260   -0.1390 hc        1 MOL      0.040060
    109 H50        -9.8930   -3.6280   -1.0760 hc        1 MOL      0.108885
    110 H51       -10.0920   -1.9660   -1.6580 hc        1 MOL      0.108885
    111 H52        -9.5610   -3.2950   -2.8440 hc        1 MOL      0.108885
    112 N10        -3.5080   -3.9880   -1.4230 n         1 MOL     -0.119033
    113 C35        -2.2280   -4.7960   -1.3300 c3        1 MOL     -0.076085
    114 C36        -1.0680   -3.8500   -1.4000 c         1 MOL      0.377583
    115 O17        -1.1460   -2.7300   -1.9160 o         1 MOL     -0.413156
    116 C37        -2.0690   -5.8240   -2.5260 c3        1 MOL      0.336875
    117 C38        -1.9870   -5.1360   -3.8410 c3        1 MOL     -0.384447
    118 O18        -3.1730   -6.6980   -2.5100 oh        1 MOL     -0.563250
    119 H53        -3.3700   -3.1540   -1.9740 hn        1 MOL      0.117608
    120 H54        -2.1850   -5.2860   -0.3620 h1        1 MOL      0.074452
    121 H55        -1.1810   -6.4130   -2.3010 h1        1 MOL     -0.020725
    122 H56        -3.0190   -7.2900   -1.7650 ho        1 MOL      0.368939
    123 H57        -2.2690   -5.8270   -4.6310 hc        1 MOL      0.117985
    124 H58        -2.7950   -4.4100   -3.9500 hc        1 MOL      0.117985
    125 H59        -1.0610   -4.5810   -4.0470 hc        1 MOL      0.117985
    126 N11         0.0060   -4.2410   -0.7060 n         1 MOL     -0.328448
    127 C39         1.1990   -3.3700   -0.2950 c3        1 MOL     -0.006964
    128 C40         1.8360   -2.7640   -1.6050 c         1 MOL      0.089024
    129 O19         1.5760   -3.2110   -2.7730 o         1 MOL     -0.450884
    130 C41         2.2100   -4.2630    0.4730 c3        1 MOL      0.275951
    131 C42         2.9250   -5.3410   -0.3340 c3        1 MOL     -0.271528
    132 O20         1.4980   -4.8700    1.5570 oh        1 MOL     -0.636519
    133 H60         0.0410   -5.1910   -0.3740 hn        1 MOL      0.275184
    134 H61         0.9380   -2.5350    0.3570 h1        1 MOL      0.184046
    135 H62         2.9900   -3.6540    0.9480 h1        1 MOL      0.072501
    136 H63         2.1800   -5.1810    2.1500 ho        1 MOL      0.382117
    137 H64         2.3080   -6.2330   -0.4370 hc        1 MOL      0.077523
    138 H65         3.3660   -5.0610   -1.2870 hc        1 MOL      0.077523
    139 H66         3.7440   -5.7770    0.2370 hc        1 MOL      0.077523
    140 N12         2.6980   -1.7650   -1.4100 n         1 MOL      0.262374
    141 C43         3.5050   -1.1900   -2.3930 c3        1 MOL     -0.037405
    142 C44         3.8180    0.3280   -2.2620 c         1 MOL      0.655887
    143 O21         3.9940    1.0810   -3.2630 o         1 MOL     -0.667308
    144 C45         4.7260   -2.1370   -2.4930 c3        1 MOL     -0.205428
    145 C46         5.6440   -1.7800   -3.6810 c3        1 MOL      0.235204
    146 C47         6.7890   -2.7650   -3.6540 c3        1 MOL      0.082070
    147 C48         7.9100   -2.3180   -4.5430 c3        1 MOL      0.052340
    148 N13         9.0020   -3.2590   -4.2870 n4        1 MOL     -0.404890
    149 H67         2.8570   -1.5100   -0.4500 hn        1 MOL     -0.224960
    150 H68         3.0970   -1.2570   -3.3990 h1        1 MOL      0.061570
    151 H69         4.3650   -3.1610   -2.4440 hc        1 MOL      0.054867
    152 H70         5.3870   -1.9590   -1.6430 hc        1 MOL      0.054867
    153 H71         6.0270   -0.7820   -3.5050 hc        1 MOL     -0.060896
    154 H72         5.2820   -1.7760   -4.7100 hc        1 MOL     -0.060896
    155 H73         6.2760   -3.6620   -4.0120 hc        1 MOL     -0.015494
    156 H74         7.0520   -2.8680   -2.6030 hc        1 MOL     -0.015494
    157 H75         8.2370   -1.3080   -4.2700 hx        1 MOL      0.072893
    158 H76         7.6000   -2.3280   -5.5910 hx        1 MOL      0.072893
    159 H77         9.7800   -2.9340   -4.8430 hn        1 MOL      0.334951
    160 H78         9.3290   -3.0790   -3.3560 hn        1 MOL      0.334951
    161 H79         8.7980   -4.2420   -4.4150 hn        1 MOL      0.334951
    162 N14         4.0640    0.8810   -1.0690 n         1 MOL     -0.025258
    163 C49         4.5350    2.2910   -0.8220 c3        1 MOL     -0.570477
    164 C50         6.0610    2.2860   -0.6040 c         1 MOL      0.440389
    165 O22         6.6540    1.6590    0.2380 o         1 MOL     -0.459629
    166 C51         3.8440    2.9090    0.4350 c3        1 MOL      0.385230
    167 C52         4.2870    4.2580    0.7460 c3        1 MOL     -0.925389
    168 C53         3.9110    5.2500   -0.4010 c         1 MOL      0.772951
    169 O23         4.8690    5.6200   -1.1140 o         1 MOL     -0.707452
    170 O24         2.7700    5.6920   -0.5860 o         1 MOL     -0.707452
    171 H80         3.8300    0.3260   -0.2550 hn        1 MOL      0.019511
    172 H81         4.2420    2.8670   -1.7010 h1        1 MOL      0.243355
    173 H82         4.0140    2.3040    1.3300 hc        1 MOL     -0.022685
    174 H83         2.7660    2.9170    0.2900 hc        1 MOL     -0.022685
    175 H84         5.3720    4.2720    0.8820 hc        1 MOL      0.291644
    176 H85         3.8650    4.7280    1.6320 hc        1 MOL      0.291644
    177 N15         6.7000    3.1950   -1.2750 n         1 MOL     -0.122281
    178 C54         8.1750    3.3890   -1.3600 c3        1 MOL     -0.301699
    179 H86         8.6330    2.4990   -1.7900 h1        1 MOL      0.118124
    180 H87         8.3930    4.2500   -1.9910 h1        1 MOL      0.118124
    181 H88         8.5780    3.5590   -0.3610 h1        1 MOL      0.118124
    182 H89         6.1320    3.7030   -1.9310 hn        1 MOL      0.271228
    183 Ca1         0.3920    4.8650   -1.2830 Ca        1 MOL      1.750605
    184 O25        -1.4700    6.6960   -2.6820 oh        1 MOL     -0.844501
    185 H90        -1.2380    7.1860   -3.4620 ho        1 MOL      0.414832
    186 H91        -1.8100    7.3450   -2.0730 ho        1 MOL      0.414832
    187 O26        -0.5960    3.9810   -3.5890 oh        1 MOL     -0.844501
    188 H92        -1.4840    4.0250   -3.9480 ho        1 MOL      0.414832
    189 H93        -0.0300    3.9050   -4.3530 ho        1 MOL      0.414832
    190 O27         2.0180    3.1720   -2.8580 oh        1 MOL     -0.844501
    191 H94         1.7230    2.3470   -2.4740 ho        1 MOL      0.414832
    192 H95         2.3850    2.9250   -3.7050 ho        1 MOL      0.414832
    193 O28         1.3560    6.3660   -3.3230 oh        1 MOL     -0.844501
    194 H96         0.9030    6.2740   -4.1630 ho        1 MOL      0.414832
    195 H97         2.1710    6.7940   -3.5400 ho        1 MOL      0.414832
    196 O29         0.7220    7.3340   -0.2450 oh        1 MOL     -0.844501
    197 H98         1.6420    7.1800   -0.4310 ho        1 MOL      0.414832
    198 H99         0.7130    8.0680    0.3630 ho        1 MOL      0.414832
@<TRIPOS>BOND
     1    1    2 1   
     2    1    4 1   
     3    1    5 1   
     4    1    6 1   
     5    2    3 2   
     6    2    7 1   
     7    7    8 1   
     8    7   15 1   
     9    8    9 1   
    10    8   11 1   
    11    8   16 1   
    12    9   10 2   
    13    9   19 1   
    14   11   12 1   
    15   11   17 1   
    16   11   18 1   
    17   12   13 1   
    18   12   14 1   
    19   19   20 1   
    20   19   28 1   
    21   20   21 1   
    22   20   23 1   
    23   20   29 1   
    24   21   22 2   
    25   21   41 1   
    26   23   24 1   
    27   23   30 1   
    28   23   31 1   
    29   24   25 1   
    30   24   32 1   
    31   24   33 1   
    32   25   26 1   
    33   25   34 1   
    34   25   35 1   
    35   26   27 1   
    36   26   36 1   
    37   26   37 1   
    38   27   38 1   
    39   27   39 1   
    40   27   40 1   
    41   41   42 1   
    42   41   49 1   
    43   42   43 1   
    44   42   45 1   
    45   42   50 1   
    46   43   44 2   
    47   43   53 1   
    48   45   46 1   
    49   45   51 1   
    50   45   52 1   
    51   46   47 1   
    52   46   48 1   
    53   53   54 1   
    54   53   57 1   
    55   54   55 1   
    56   54   58 1   
    57   54   59 1   
    58   55   56 2   
    59   55   60 1   
    60   60   61 1   
    61   60   68 1   
    62   61   62 1   
    63   61   64 1   
    64   61   69 1   
    65   62   63 2   
    66   62   72 1   
    67   64   65 1   
    68   64   70 1   
    69   64   71 1   
    70   65   66 1   
    71   65   67 1   
    72   72   73 1   
    73   72   76 1   
    74   73   74 1   
    75   73   77 1   
    76   73   78 1   
    77   74   75 2   
    78   74   79 1   
    79   79   80 1   
    80   79   86 1   
    81   80   81 1   
    82   80   83 1   
    83   80   87 1   
    84   81   82 2   
    85   81   93 1   
    86   83   84 1   
    87   83   85 1   
    88   83   88 1   
    89   84   90 1   
    90   84   91 1   
    91   84   92 1   
    92   85   89 1   
    93   93   94 1   
    94   93  101 1   
    95   94   95 1   
    96   94   97 1   
    97   94  102 1   
    98   95   96 2   
    99   95  112 1   
   100   97   98 1   
   101   97   99 1   
   102   97  103 1   
   103   98  100 1   
   104   98  104 1   
   105   98  105 1   
   106   99  106 1   
   107   99  107 1   
   108   99  108 1   
   109  100  109 1   
   110  100  110 1   
   111  100  111 1   
   112  112  113 1   
   113  112  119 1   
   114  113  114 1   
   115  113  116 1   
   116  113  120 1   
   117  114  115 2   
   118  114  126 1   
   119  116  117 1   
   120  116  118 1   
   121  116  121 1   
   122  117  123 1   
   123  117  124 1   
   124  117  125 1   
   125  118  122 1   
   126  126  127 1   
   127  126  133 1   
   128  127  128 1   
   129  127  130 1   
   130  127  134 1   
   131  128  129 2   
   132  128  140 1   
   133  130  131 1   
   134  130  132 1   
   135  130  135 1   
   136  131  137 1   
   137  131  138 1   
   138  131  139 1   
   139  132  136 1   
   140  140  141 1   
   141  140  149 1   
   142  141  142 1   
   143  141  144 1   
   144  141  150 1   
   145  142  143 2   
   146  142  162 1   
   147  144  145 1   
   148  144  151 1   
   149  144  152 1   
   150  145  146 1   
   151  145  153 1   
   152  145  154 1   
   153  146  147 1   
   154  146  155 1   
   155  146  156 1   
   156  147  148 1   
   157  147  157 1   
   158  147  158 1   
   159  148  159 1   
   160  148  160 1   
   161  148  161 1   
   162  162  163 1   
   163  162  171 1   
   164  163  164 1   
   165  163  166 1   
   166  163  172 1   
   167  164  165 2   
   168  164  177 1   
   169  166  167 1   
   170  166  173 1   
   171  166  174 1   
   172  167  168 1   
   173  167  175 1   
   174  167  176 1   
   175  168  169 1   
   176  168  170 1   
   177  177  178 1   
   178  177  182 1   
   179  178  179 1   
   180  178  180 1   
   181  178  181 1   
   182  184  185 1   
   183  184  186 1   
   184  187  188 1   
   185  187  189 1   
   186  190  191 1   
   187  190  192 1   
   188  193  194 1   
   189  193  195 1   
   190  196  197 1   
   191  196  198 1   
@<TRIPOS>SUBSTRUCTURE
     1 MOL         1 TEMP              0 ****  ****    0 ROOT
