@<TRIPOS>MOLECULE
MOL
  179   176     1     0     0
SMALL
resp


@<TRIPOS>ATOM
      1 C1          1.8510   -4.5200    5.8010 c3        1 MOL     -0.357403
      2 C2          1.7700   -4.3560    4.2330 c         1 MOL      0.699716
      3 O1          0.7110   -4.4830    3.5580 o         1 MOL     -0.611715
      4 H1          2.8250   -4.9250    6.0740 hc        1 MOL      0.104368
      5 H2          1.7150   -3.5490    6.2760 hc        1 MOL      0.104368
      6 H3          1.0690   -5.2020    6.1360 hc        1 MOL      0.104368
      7 N1          2.8370   -3.7790    3.7000 n         1 MOL     -0.626513
      8 C3          2.9570   -3.2490    2.3230 c3        1 MOL      0.135277
      9 C4          3.3630   -4.3490    1.3200 c         1 MOL      0.588055
     10 O2          4.1350   -5.2710    1.6140 o         1 MOL     -0.526919
     11 C5          3.8980   -2.0020    2.4700 c3        1 MOL     -0.036264
     12 C6          3.8340   -0.9720    1.3690 c         1 MOL      0.068512
     13 O3          4.4440    0.0990    1.6190 o         1 MOL     -0.480233
     14 O4          3.5460   -1.2670    0.2130 o         1 MOL     -0.480233
     15 H4          3.6260   -3.6460    4.3050 hn        1 MOL      0.332881
     16 H5          2.0020   -2.8620    1.9600 h1        1 MOL     -0.063311
     17 H6          4.8720   -2.4400    2.6830 hc        1 MOL      0.080250
     18 H7          3.5700   -1.5160    3.3900 hc        1 MOL      0.080250
     19 N2          2.9850   -4.1380    0.0560 n         1 MOL     -0.447233
     20 C7          3.4800   -5.0350   -1.0340 c3        1 MOL     -0.036881
     21 C8          4.8020   -4.5630   -1.6280 c         1 MOL      0.540746
     22 O5          5.5710   -5.4680   -1.8910 o         1 MOL     -0.556055
     23 C9          2.4510   -5.3320   -2.1330 c3        1 MOL      0.111198
     24 C10         1.0730   -5.9070   -1.7560 c3        1 MOL     -0.074094
     25 C11         0.2090   -6.4020   -2.9300 c3        1 MOL     -0.098425
     26 C12        -1.1450   -6.9910   -2.3230 c3        1 MOL     -0.262936
     27 N3         -1.8770   -7.5300   -3.5290 n4        1 MOL      0.067997
     28 H8          2.5520   -3.2740   -0.2330 hn        1 MOL      0.305244
     29 H9          3.5940   -6.0320   -0.6070 h1        1 MOL      0.113285
     30 H10         2.8400   -5.9930   -2.9050 hc        1 MOL     -0.039473
     31 H11         2.2220   -4.4350   -2.7100 hc        1 MOL     -0.039473
     32 H12         0.5900   -5.1350   -1.1530 hc        1 MOL      0.051934
     33 H13         1.3060   -6.7790   -1.1410 hc        1 MOL      0.051934
     34 H14         0.7060   -7.3100   -3.2510 hc        1 MOL      0.078195
     35 H15        -0.0260   -5.7340   -3.7520 hc        1 MOL      0.078195
     36 H16        -1.7160   -6.1950   -1.8530 hx        1 MOL      0.170327
     37 H17        -0.7960   -7.7890   -1.6660 hx        1 MOL      0.170327
     38 H18        -1.5170   -7.3200   -4.4550 hn        1 MOL      0.201105
     39 H19        -1.8430   -8.5370   -3.6270 hn        1 MOL      0.201105
     40 H20        -2.8680   -7.3860   -3.5860 hn        1 MOL      0.201105
     41 N4          5.1430   -3.3020   -1.5630 n         1 MOL     -0.309470
     42 C13         6.3070   -2.6700   -2.1720 c3        1 MOL      0.249610
     43 C14         7.1890   -2.0800   -1.0580 c         1 MOL      0.367051
     44 O6          8.3750   -2.3330   -0.9750 o         1 MOL     -0.520500
     45 C15         5.9160   -1.6820   -3.2320 c3        1 MOL     -0.356971
     46 C16         4.8100   -0.7330   -2.7320 c         1 MOL      0.833179
     47 O7          3.5690   -0.9930   -2.9410 o         1 MOL     -0.839034
     48 O8          4.9990    0.1540   -1.9030 o         1 MOL     -0.839034
     49 H21         4.4930   -2.6650   -1.1330 hn        1 MOL      0.195639
     50 H22         6.9090   -3.4180   -2.6790 h1        1 MOL      0.049196
     51 H23         5.6690   -2.2100   -4.1520 hc        1 MOL      0.102054
     52 H24         6.8110   -1.0970   -3.4620 hc        1 MOL      0.102054
     53 N5          6.5940   -1.2920   -0.1410 n         1 MOL     -0.087015
     54 C17         7.2540   -0.5860    0.9800 c3        1 MOL     -0.218567
     55 C18         7.3090    0.9870    0.8830 c         1 MOL      0.478817
     56 O9          7.9500    1.6310    1.7180 o         1 MOL     -0.543163
     57 H25         5.6300   -1.0680   -0.3380 hn        1 MOL      0.104508
     58 H26         8.2940   -0.8750    1.1230 h1        1 MOL      0.132160
     59 H27         6.7470   -0.7360    1.9290 h1        1 MOL      0.132160
     60 N6          6.7840    1.5410   -0.2290 n         1 MOL     -0.072715
     61 C19         6.7420    2.9350   -0.6040 c3        1 MOL      0.030971
     62 C20         5.3240    3.5010   -0.3210 c         1 MOL      0.497407
     63 O10         4.2950    2.7970   -0.3690 o         1 MOL     -0.581256
     64 C21         7.0030    3.1110   -2.1430 c3        1 MOL     -0.354707
     65 C22         8.3990    2.7990   -2.6860 c         1 MOL      0.574327
     66 N7          8.4410    1.7400   -3.4870 n         1 MOL     -0.672740
     67 O11         9.4750    3.3770   -2.4110 o         1 MOL     -0.503165
     68 H28         6.3110    0.9120   -0.8630 hn        1 MOL      0.133834
     69 H29         7.4920    3.3710    0.0520 h1        1 MOL      0.064248
     70 H30         6.6680    4.1350   -2.3040 hc        1 MOL      0.097627
     71 H31         6.2630    2.5380   -2.6990 hc        1 MOL      0.097627
     72 H32         7.5960    1.3100   -3.8400 hn        1 MOL      0.334701
     73 H33         9.2940    1.6160   -4.0220 hn        1 MOL      0.334701
     74 N8          5.2620    4.7960   -0.0700 n         1 MOL     -0.248849
     75 C23         4.0100    5.5890   -0.1770 c3        1 MOL     -0.272419
     76 C24         2.8990    5.2150    0.8100 c         1 MOL      0.695390
     77 O12         3.2030    4.9580    1.9650 o         1 MOL     -0.503653
     78 H34         6.1270    5.2600    0.1870 hn        1 MOL      0.279805
     79 H35         3.6570    5.3660   -1.1790 h1        1 MOL      0.121978
     80 H36         4.1430    6.6450    0.0390 h1        1 MOL      0.121978
     81 N9          1.6310    5.0790    0.3420 n         1 MOL     -0.665276
     82 C25         0.4840    4.5320    1.0730 c3        1 MOL      0.016435
     83 C26         0.8230    3.1170    1.4050 c         1 MOL      0.817983
     84 O13         1.6800    2.4440    0.8520 o         1 MOL     -0.625857
     85 C27        -0.7930    4.6350    0.1950 c3        1 MOL     -0.265259
     86 C28        -1.0520    6.0520   -0.2580 ca        1 MOL      0.247708
     87 C29        -0.9560    7.1200    0.6790 ca        1 MOL     -0.269922
     88 C30        -1.4500    6.2770   -1.5720 ca        1 MOL     -0.269922
     89 C31        -1.0900    8.4320    0.2100 ca        1 MOL     -0.117190
     90 C32        -1.5740    7.6240   -1.9940 ca        1 MOL     -0.117190
     91 C33        -1.3000    8.7300   -1.1420 ca        1 MOL      0.160907
     92 O14        -1.6730    9.9670   -1.5170 oh        1 MOL     -0.433885
     93 H37         1.4870    5.4460   -0.5880 hn        1 MOL      0.312544
     94 H38         0.2790    5.0920    1.9830 h1        1 MOL      0.081957
     95 H39        -1.6210    4.3280    0.8400 hc        1 MOL      0.089312
     96 H40        -0.6100    3.9720   -0.6440 hc        1 MOL      0.089312
     97 H41        -0.6480    6.9660    1.7050 ha        1 MOL      0.161674
     98 H42        -1.6440    5.4470   -2.2320 ha        1 MOL      0.161674
     99 H43        -1.0760    9.2510    0.9120 ha        1 MOL      0.123216
    100 H44        -1.7520    7.8240   -3.0490 ha        1 MOL      0.123216
    101 H45        -1.5910   10.6000   -0.8080 ho        1 MOL      0.375347
    102 N10        -0.0000    2.5880    2.3190 n         1 MOL     -0.761999
    103 C34        -0.0990    1.1950    2.8720 c3        1 MOL      0.298115
    104 C35        -0.1490    0.0920    1.7410 c         1 MOL      0.215678
    105 O15         0.8480   -0.1730    1.0700 o         1 MOL     -0.375001
    106 C36         0.9620    0.8920    3.9130 c3        1 MOL      0.136960
    107 C37         0.9990   -0.5980    4.3770 c3        1 MOL      0.037211
    108 C38         0.8880    1.8340    5.1520 c3        1 MOL     -0.357345
    109 C39        -0.0470   -1.0460    5.3710 c3        1 MOL     -0.200739
    110 H46        -0.5950    3.2340    2.8340 hn        1 MOL      0.352152
    111 H47        -1.0790    1.1360    3.3350 h1        1 MOL      0.011063
    112 H48         1.9280    1.0210    3.4170 hc        1 MOL      0.069452
    113 H49         1.9960   -0.7650    4.7880 hc        1 MOL      0.034151
    114 H50         1.0460   -1.2870    3.5260 hc        1 MOL      0.034151
    115 H51         0.2850    1.4340    5.9700 hc        1 MOL      0.084355
    116 H52         1.8880    2.1530    5.4650 hc        1 MOL      0.084355
    117 H53         0.3880    2.7480    4.8270 hc        1 MOL      0.084355
    118 H54         0.1430   -2.0990    5.5610 hc        1 MOL      0.047935
    119 H55         0.0700   -0.4900    6.2940 hc        1 MOL      0.047935
    120 H56        -1.0770   -0.8940    5.0660 hc        1 MOL      0.047935
    121 N11        -1.3150   -0.4330    1.5540 n         1 MOL     -0.321771
    122 C40        -1.5670   -1.5370    0.5480 c3        1 MOL     -0.120692
    123 C41        -3.0450   -1.5430    0.1560 c         1 MOL      0.664858
    124 O16        -3.3400   -2.4210   -0.6410 o         1 MOL     -0.578974
    125 C42        -1.1180   -2.8480    1.2130 c3        1 MOL      0.328644
    126 O17        -1.7670   -3.1210    2.5010 oh        1 MOL     -0.616478
    127 H57        -2.1310   -0.1080    2.0590 hn        1 MOL      0.286836
    128 H58        -0.9440   -1.3430   -0.3270 h1        1 MOL      0.132035
    129 H59        -0.0420   -2.7630    1.3730 h1        1 MOL     -0.039617
    130 H60        -1.3350   -3.6220    0.4790 h1        1 MOL     -0.039617
    131 H61        -1.2160   -3.7630    2.9500 ho        1 MOL      0.409686
    132 N12        -3.9040   -0.6140    0.5380 n         1 MOL     -0.495087
    133 C43        -5.2620   -0.7800    0.1130 c3        1 MOL      0.051321
    134 C44        -5.5000   -0.1400   -1.2710 c         1 MOL      0.618077
    135 O18        -4.5160    0.3460   -1.8580 o         1 MOL     -0.588093
    136 C45        -6.1460   -0.1940    1.2620 c3        1 MOL     -0.165845
    137 H62        -3.5720    0.1220    1.1390 hn        1 MOL      0.256334
    138 H63        -5.5870   -1.8060   -0.0530 h1        1 MOL      0.114399
    139 H64        -6.0450   -0.8500    2.1280 hc        1 MOL      0.057701
    140 H65        -5.9550    0.8260    1.5850 hc        1 MOL      0.057701
    141 H66        -7.1670   -0.1320    0.9020 hc        1 MOL      0.057701
    142 N13        -6.6560   -0.2180   -1.9180 n         1 MOL     -0.626091
    143 C46        -7.8000   -1.1190   -1.6750 c3        1 MOL      0.476021
    144 C47        -9.0840   -0.4880   -2.1900 c         1 MOL      0.237058
    145 O19        -9.1080    0.1290   -3.2540 o         1 MOL     -0.495591
    146 C48        -7.4840   -2.4770   -2.2530 c3        1 MOL     -0.296290
    147 H67        -6.7620    0.3080   -2.7740 hn        1 MOL      0.328988
    148 H68        -7.9640   -1.3140   -0.6110 h1        1 MOL     -0.039492
    149 H69        -6.6720   -2.8780   -1.6610 hc        1 MOL      0.073289
    150 H70        -8.3540   -3.1160   -2.0930 hc        1 MOL      0.073289
    151 H71        -7.1340   -2.3190   -3.2760 hc        1 MOL      0.073289
    152 N14       -10.2430   -0.5880   -1.4910 n         1 MOL     -0.247936
    153 C49       -10.4330   -1.2050   -0.1800 c3        1 MOL     -0.205675
    154 C50        -9.9820   -0.2150    0.9230 c         1 MOL      0.543637
    155 O20        -9.5500   -0.6080    2.0040 o         1 MOL     -0.594763
    156 C51       -11.9040   -1.6360    0.1060 c3        1 MOL     -0.021643
    157 C52       -12.9160   -0.5530    0.4440 c3        1 MOL     -0.074220
    158 C53       -13.1150    0.3940   -0.7570 c         1 MOL      0.619606
    159 O21       -14.0490    0.2360   -1.6360 o         1 MOL     -0.643307
    160 O22       -12.2570    1.3240   -0.8580 o         1 MOL     -0.643307
    161 H72       -11.0340   -0.1910   -1.9540 hn        1 MOL      0.298956
    162 H73        -9.8780   -2.1260    0.0290 h1        1 MOL      0.112174
    163 H74       -11.7440   -2.3240    0.9380 hc        1 MOL      0.031550
    164 H75       -12.2720   -2.2200   -0.7350 hc        1 MOL      0.031550
    165 H76       -12.5880    0.0900    1.2550 hc        1 MOL      0.008685
    166 H77       -13.8560   -1.0830    0.5940 hc        1 MOL      0.008685
    167 N15       -10.0060    1.0780    0.6950 n         1 MOL     -0.130707
    168 C54        -9.5540    2.1590    1.5590 c3        1 MOL     -0.236353
    169 H78       -10.4140    2.7390    1.8950 h1        1 MOL      0.094531
    170 H79        -9.0390    1.7420    2.4240 h1        1 MOL      0.094531
    171 H80        -8.8740    2.8060    1.0070 h1        1 MOL      0.094531
    172 H81       -10.4800    1.3890   -0.1420 hn        1 MOL      0.188956
    173 Ca1         2.6880    0.7950   -1.0130 Ca        1 MOL      1.830008
    174 O23         0.4510    1.2770   -2.4140 oh        1 MOL     -0.924578
    175 H82        -0.3400    0.7420   -2.4420 ho        1 MOL      0.454305
    176 H83         0.2820    1.9840   -3.0450 ho        1 MOL      0.454305
    177 O24         1.2220   -1.5930   -1.8900 oh        1 MOL     -0.924578
    178 H84         1.9810   -1.6030   -2.4820 ho        1 MOL      0.454305
    179 H85         0.6460   -2.2790   -2.2240 ho        1 MOL      0.454305
@<TRIPOS>BOND
     1    1    2 1   
     2    1    4 1   
     3    1    5 1   
     4    1    6 1   
     5    2    3 2   
     6    2    7 1   
     7    7    8 1   
     8    7   15 1   
     9    8    9 1   
    10    8   11 1   
    11    8   16 1   
    12    9   10 2   
    13    9   19 1   
    14   11   12 1   
    15   11   17 1   
    16   11   18 1   
    17   12   13 1   
    18   12   14 1   
    19   19   20 1   
    20   19   28 1   
    21   20   21 1   
    22   20   23 1   
    23   20   29 1   
    24   21   22 2   
    25   21   41 1   
    26   23   24 1   
    27   23   30 1   
    28   23   31 1   
    29   24   25 1   
    30   24   32 1   
    31   24   33 1   
    32   25   26 1   
    33   25   34 1   
    34   25   35 1   
    35   26   27 1   
    36   26   36 1   
    37   26   37 1   
    38   27   38 1   
    39   27   39 1   
    40   27   40 1   
    41   41   42 1   
    42   41   49 1   
    43   42   43 1   
    44   42   45 1   
    45   42   50 1   
    46   43   44 2   
    47   43   53 1   
    48   45   46 1   
    49   45   51 1   
    50   45   52 1   
    51   46   47 1   
    52   46   48 1   
    53   53   54 1   
    54   53   57 1   
    55   54   55 1   
    56   54   58 1   
    57   54   59 1   
    58   55   56 2   
    59   55   60 1   
    60   60   61 1   
    61   60   68 1   
    62   61   62 1   
    63   61   64 1   
    64   61   69 1   
    65   62   63 2   
    66   62   74 1   
    67   64   65 1   
    68   64   70 1   
    69   64   71 1   
    70   65   66 1   
    71   65   67 2   
    72   66   72 1   
    73   66   73 1   
    74   74   75 1   
    75   74   78 1   
    76   75   76 1   
    77   75   79 1   
    78   75   80 1   
    79   76   77 2   
    80   76   81 1   
    81   81   82 1   
    82   81   93 1   
    83   82   83 1   
    84   82   85 1   
    85   82   94 1   
    86   83   84 2   
    87   83  102 1   
    88   85   86 1   
    89   85   95 1   
    90   85   96 1   
    91   86   87 ar  
    92   86   88 ar  
    93   87   89 ar  
    94   87   97 1   
    95   88   90 ar  
    96   88   98 1   
    97   89   91 ar  
    98   89   99 1   
    99   90   91 ar  
   100   90  100 1   
   101   91   92 1   
   102   92  101 1   
   103  102  103 1   
   104  102  110 1   
   105  103  104 1   
   106  103  106 1   
   107  103  111 1   
   108  104  105 2   
   109  104  121 1   
   110  106  107 1   
   111  106  108 1   
   112  106  112 1   
   113  107  109 1   
   114  107  113 1   
   115  107  114 1   
   116  108  115 1   
   117  108  116 1   
   118  108  117 1   
   119  109  118 1   
   120  109  119 1   
   121  109  120 1   
   122  121  122 1   
   123  121  127 1   
   124  122  123 1   
   125  122  125 1   
   126  122  128 1   
   127  123  124 2   
   128  123  132 1   
   129  125  126 1   
   130  125  129 1   
   131  125  130 1   
   132  126  131 1   
   133  132  133 1   
   134  132  137 1   
   135  133  134 1   
   136  133  136 1   
   137  133  138 1   
   138  134  135 2   
   139  134  142 1   
   140  136  139 1   
   141  136  140 1   
   142  136  141 1   
   143  142  143 1   
   144  142  147 1   
   145  143  144 1   
   146  143  146 1   
   147  143  148 1   
   148  144  145 2   
   149  144  152 1   
   150  146  149 1   
   151  146  150 1   
   152  146  151 1   
   153  152  153 1   
   154  152  161 1   
   155  153  154 1   
   156  153  156 1   
   157  153  162 1   
   158  154  155 2   
   159  154  167 1   
   160  156  157 1   
   161  156  163 1   
   162  156  164 1   
   163  157  158 1   
   164  157  165 1   
   165  157  166 1   
   166  158  159 1   
   167  158  160 1   
   168  167  168 1   
   169  167  172 1   
   170  168  169 1   
   171  168  170 1   
   172  168  171 1   
   173  174  175 1   
   174  174  176 1   
   175  177  178 1   
   176  177  179 1   
@<TRIPOS>SUBSTRUCTURE
     1 MOL         1 TEMP              0 ****  ****    0 ROOT
