@<TRIPOS>MOLECULE
MOL
  176   174     1     0     0
SMALL
resp


@<TRIPOS>ATOM
      1 C1          2.0760   -4.6140    5.8400 c3        1 MOL     -0.423061
      2 C2          1.9630   -4.4070    4.3600 c         1 MOL      0.789695
      3 O1          0.9260   -4.5840    3.7180 o         1 MOL     -0.640825
      4 H1          2.9320   -4.0560    6.2210 hc        1 MOL      0.122489
      5 H2          1.1670   -4.2610    6.3270 hc        1 MOL      0.122489
      6 H3          2.2130   -5.6750    6.0490 hc        1 MOL      0.122489
      7 N1          3.0600   -3.9120    3.7560 n         1 MOL     -0.621967
      8 C3          3.1940   -3.3920    2.4230 c3        1 MOL      0.092772
      9 C4          3.3910   -4.5920    1.4930 c         1 MOL      0.607217
     10 O2          4.2710   -5.4470    1.7010 o         1 MOL     -0.519696
     11 C5          4.2210   -2.2100    2.3720 c3        1 MOL     -0.255074
     12 C6          3.9140   -1.4670    1.0630 c         1 MOL      0.393635
     13 O3          4.2450   -0.2630    0.9250 o         1 MOL     -0.576703
     14 O4          3.3360   -1.9830    0.0890 o         1 MOL     -0.576703
     15 H4          3.8940   -3.9650    4.3300 hn        1 MOL      0.326111
     16 H5          2.2880   -2.8080    2.2530 h1        1 MOL     -0.152775
     17 H6          5.2290   -2.6120    2.3600 hc        1 MOL      0.142885
     18 H7          3.9820   -1.5810    3.2380 hc        1 MOL      0.142885
     19 N2          2.5060   -4.6620    0.4510 n         1 MOL     -0.299356
     20 C7          2.6170   -5.5220   -0.7450 c3        1 MOL     -0.063971
     21 C8          3.8330   -5.2450   -1.6410 c         1 MOL      0.538029
     22 O5          4.5030   -6.1590   -2.1010 o         1 MOL     -0.529077
     23 C9          1.3490   -5.3440   -1.6080 c3        1 MOL     -0.092770
     24 C10         0.1470   -6.0710   -0.9020 c3        1 MOL      0.124182
     25 C11        -1.2520   -5.9170   -1.5720 c3        1 MOL     -0.202067
     26 C12        -1.5750   -4.4240   -1.7870 c3        1 MOL     -0.056101
     27 N3         -3.0800   -4.1720   -1.8570 n4        1 MOL     -0.248170
     28 H8          1.7270   -4.0180    0.4640 hn        1 MOL      0.157153
     29 H9          2.5810   -6.5550   -0.3940 h1        1 MOL      0.091284
     30 H10         1.5500   -5.6920   -2.6210 hc        1 MOL      0.046549
     31 H11         1.0970   -4.2880   -1.6020 hc        1 MOL      0.046549
     32 H12         0.0540   -5.5870    0.0750 hc        1 MOL     -0.003926
     33 H13         0.2020   -7.1390   -0.7280 hc        1 MOL     -0.003926
     34 H14        -2.0400   -6.3880   -0.9850 hc        1 MOL      0.089901
     35 H15        -1.2430   -6.4820   -2.5020 hc        1 MOL      0.089901
     36 H16        -1.1600   -4.0410   -2.7210 hx        1 MOL      0.114211
     37 H17        -1.0780   -3.9740   -0.9270 hx        1 MOL      0.114211
     38 H18        -3.5970   -4.8390   -2.4180 hn        1 MOL      0.283983
     39 H19        -3.5210   -4.0080   -0.9640 hn        1 MOL      0.283983
     40 H20        -3.2870   -3.2670   -2.2510 hn        1 MOL      0.283983
     41 N4          4.1120   -3.9370   -1.6930 n         1 MOL     -0.304269
     42 C13         5.1310   -3.3700   -2.6630 c3        1 MOL     -0.093465
     43 C14         6.3750   -2.6990   -2.0080 c         1 MOL      0.452165
     44 O6          7.4430   -2.4450   -2.6100 o         1 MOL     -0.555551
     45 C15         4.5610   -2.5100   -3.7470 c3        1 MOL     -0.050229
     46 C16         3.8780   -1.2750   -3.1760 c         1 MOL      0.626614
     47 O7          2.6360   -1.2010   -3.1550 o         1 MOL     -0.748795
     48 O8          4.5590   -0.4960   -2.4580 o         1 MOL     -0.748795
     49 H21         3.5920   -3.3380   -1.0660 hn        1 MOL      0.206706
     50 H22         5.6310   -4.1910   -3.1810 h1        1 MOL      0.124261
     51 H23         3.8620   -3.0900   -4.3480 hc        1 MOL      0.051540
     52 H24         5.2890   -2.2740   -4.5240 hc        1 MOL      0.051540
     53 N5          6.3280   -2.4450   -0.7190 n         1 MOL     -0.108917
     54 C17         7.2570   -1.7640    0.1480 c3        1 MOL     -0.171186
     55 C18         7.4160   -0.2390   -0.0690 c         1 MOL      0.539809
     56 O9          8.1160    0.2880    0.7730 o         1 MOL     -0.573051
     57 H25         5.4210   -2.6100   -0.2980 hn        1 MOL      0.105647
     58 H26         8.2220   -2.2700    0.2320 h1        1 MOL      0.107310
     59 H27         6.7200   -1.7610    1.0950 h1        1 MOL      0.107310
     60 N6          6.6540    0.4720   -0.8890 n         1 MOL     -0.183246
     61 C19         6.7860    1.8670   -1.2150 c3        1 MOL      0.031524
     62 C20         5.4740    2.7260   -0.9520 c         1 MOL      0.674597
     63 O10         4.3370    2.1890   -0.9410 o         1 MOL     -0.699102
     64 C21         7.1570    1.9720   -2.7210 c3        1 MOL     -0.100220
     65 C22         7.7030    3.3240   -3.1480 c         1 MOL      0.580013
     66 N7          7.9040    3.4340   -4.4770 n         1 MOL     -0.805796
     67 O11         8.0780    4.2060   -2.3440 o         1 MOL     -0.538748
     68 H28         5.9790   -0.1000   -1.3770 hn        1 MOL      0.188063
     69 H29         7.5980    2.3170   -0.6430 h1        1 MOL      0.045940
     70 H30         6.2970    1.7120   -3.3350 hc        1 MOL      0.054219
     71 H31         7.9090    1.2030   -2.8970 hc        1 MOL      0.054219
     72 H32         7.5900    2.6410   -5.0170 hn        1 MOL      0.382092
     73 H33         8.3360    4.2860   -4.7990 hn        1 MOL      0.382092
     74 N8          5.6840    3.9840   -0.6590 n         1 MOL     -0.528462
     75 C23         4.5910    4.9590   -0.4130 c3        1 MOL      0.006930
     76 C24         3.6980    4.7190    0.8200 c         1 MOL      0.619322
     77 O12         4.1450    4.2510    1.8730 o         1 MOL     -0.516142
     78 H34         6.6130    4.3020   -0.4660 hn        1 MOL      0.354925
     79 H35         3.9180    4.8730   -1.2650 h1        1 MOL      0.063500
     80 H36         4.9220    5.9930   -0.3680 h1        1 MOL      0.063500
     81 N9          2.3930    4.9650    0.7110 n         1 MOL     -0.565919
     82 C25         1.3360    4.4130    1.5810 c3        1 MOL      0.213724
     83 C26         1.0830    2.8590    1.4410 c         1 MOL      0.722459
     84 O13         1.5310    2.1710    0.5150 o         1 MOL     -0.607106
     85 C27        -0.0010    5.0980    1.1040 c3        1 MOL     -0.285337
     86 C28         0.1130    6.5800    0.7920 ca        1 MOL      0.178972
     87 C29         0.4250    7.0170   -0.5130 ca        1 MOL     -0.176259
     88 C30        -0.2140    7.5080    1.7790 ca        1 MOL     -0.176259
     89 C31         0.3220    8.3850   -0.8400 ca        1 MOL     -0.287662
     90 C32        -0.4670    8.8700    1.3820 ca        1 MOL     -0.287662
     91 C33        -0.2220    9.2900    0.1090 ca        1 MOL      0.380215
     92 O14        -0.4130   10.6090   -0.1970 oh        1 MOL     -0.492699
     93 H37         2.0620    5.4020   -0.1400 hn        1 MOL      0.220479
     94 H38         1.4930    4.6820    2.6170 h1        1 MOL      0.058348
     95 H39        -0.8320    5.0090    1.7950 hc        1 MOL      0.071037
     96 H40        -0.1200    4.6460    0.1150 hc        1 MOL      0.071037
     97 H41         0.6330    6.3040   -1.3040 ha        1 MOL      0.155238
     98 H42        -0.4250    7.2510    2.8060 ha        1 MOL      0.155238
     99 H43         0.6360    8.8060   -1.7810 ha        1 MOL      0.163486
    100 H44        -0.8410    9.6460    2.0230 ha        1 MOL      0.163486
    101 H45        -0.0600   10.8550   -1.0480 ho        1 MOL      0.372403
    102 N10         0.4280    2.3660    2.4800 n         1 MOL     -0.842497
    103 C34         0.2860    0.9750    2.8340 c3        1 MOL      0.534800
    104 C35         0.0190    0.0360    1.7130 c         1 MOL      0.227878
    105 O15         0.9480   -0.3570    1.0140 o         1 MOL     -0.499147
    106 C36         1.5070    0.4450    3.6970 c3        1 MOL      0.159643
    107 C37         1.1800   -0.8200    4.4820 c3        1 MOL      0.010780
    108 C38         1.8900    1.4090    4.8430 c3        1 MOL     -0.275823
    109 C39        -0.0810   -0.8660    5.2790 c3        1 MOL     -0.259814
    110 H46         0.1820    3.0140    3.2130 hn        1 MOL      0.354606
    111 H47        -0.5650    1.0130    3.5220 h1        1 MOL     -0.042176
    112 H48         2.3090    0.1800    3.0230 hc        1 MOL      0.022629
    113 H49         2.0560   -0.9960    5.1080 hc        1 MOL      0.045704
    114 H50         1.1750   -1.7210    3.8700 hc        1 MOL      0.045704
    115 H51         2.6300    0.9420    5.5050 hc        1 MOL      0.066246
    116 H52         2.2830    2.3560    4.4730 hc        1 MOL      0.066246
    117 H53         1.0440    1.6610    5.4720 hc        1 MOL      0.066246
    118 H54        -0.2180    0.0100    5.9220 hc        1 MOL      0.058919
    119 H55        -0.9900   -1.0060    4.6850 hc        1 MOL      0.058919
    120 H56        -0.0490   -1.6910    5.9970 hc        1 MOL      0.058919
    121 N11        -1.2780   -0.3480    1.6290 n         1 MOL     -0.216600
    122 C40        -1.7300   -1.5050    0.7840 c3        1 MOL      0.010022
    123 C41        -3.2630   -1.3590    0.2830 c         1 MOL      0.628514
    124 O16        -3.9690   -2.3640   -0.0190 o         1 MOL     -0.570444
    125 C42        -1.6200   -2.8820    1.4760 c3        1 MOL     -0.035966
    126 O17        -0.1960   -3.1290    1.2520 oh        1 MOL     -0.301747
    127 H57        -1.9660    0.1330    2.1840 hn        1 MOL      0.236272
    128 H58        -1.1560   -1.6010   -0.1380 h1        1 MOL     -0.031899
    129 H59        -2.1660   -3.6270    0.9050 h1        1 MOL      0.072059
    130 H60        -1.9450   -2.8450    2.5210 h1        1 MOL      0.072059
    131 H61         0.0990   -3.8120    1.8690 ho        1 MOL      0.380078
    132 N12        -3.8000   -0.1020    0.1350 n         1 MOL     -0.780138
    133 C43        -5.2200    0.1440   -0.1080 c3        1 MOL      0.570508
    134 C44        -5.4640    1.0440   -1.3430 c         1 MOL      0.407844
    135 O18        -4.6750    1.8910   -1.6300 o         1 MOL     -0.547379
    136 C45        -5.9160    0.5480    1.2100 c3        1 MOL     -0.217654
    137 H62        -3.1640    0.6760    0.2530 hn        1 MOL      0.295637
    138 H63        -5.7620   -0.7430   -0.4240 h1        1 MOL     -0.054232
    139 H64        -5.7660   -0.2300    1.9610 hc        1 MOL      0.064993
    140 H65        -5.5340    1.4980    1.5700 hc        1 MOL      0.064993
    141 H66        -6.9700    0.6360    0.9830 hc        1 MOL      0.064993
    142 N13        -6.6550    1.0610   -1.9350 n         1 MOL     -0.462637
    143 C46        -7.8810    0.2130   -1.7840 c3        1 MOL      0.100898
    144 C47        -9.1060    1.1150   -2.0400 c         1 MOL      0.471804
    145 O19        -9.0860    2.0470   -2.8400 o         1 MOL     -0.532656
    146 C48        -7.7960   -0.9440   -2.8110 c3        1 MOL     -0.019334
    147 H67        -6.8590    1.7370   -2.6490 hn        1 MOL      0.306194
    148 H68        -7.9770   -0.2950   -0.8220 h1        1 MOL      0.096425
    149 H69        -6.8360   -1.4530   -2.7820 hc        1 MOL      0.012887
    150 H70        -8.6730   -1.5270   -2.5250 hc        1 MOL      0.012887
    151 H71        -7.7920   -0.6100   -3.8430 hc        1 MOL      0.012887
    152 N14       -10.2750    0.8910   -1.3700 n         1 MOL     -0.378908
    153 C49       -10.4430   -0.0650   -0.2750 c3        1 MOL     -0.326298
    154 C50        -9.8530    0.5860    0.9710 c         1 MOL      0.445395
    155 O20        -9.2080   -0.0920    1.8110 o         1 MOL     -0.515638
    156 C51       -11.9640   -0.3560   -0.0540 c3        1 MOL      0.118857
    157 C52       -12.6550   -1.0060   -1.1960 c3        1 MOL     -0.194343
    158 C53       -12.0900   -2.3140   -1.5630 c         1 MOL      0.724620
    159 O21       -12.5140   -3.3750   -1.0820 o         1 MOL     -0.690770
    160 O22       -11.0610   -2.3770   -2.3050 o         1 MOL     -0.690770
    161 H72       -11.1120    1.3740   -1.6620 hn        1 MOL      0.320752
    162 H73        -9.9560   -1.0240   -0.4600 h1        1 MOL      0.192107
    163 H74       -12.4510    0.5450    0.3310 hc        1 MOL      0.024974
    164 H75       -12.0370   -0.9840    0.8260 hc        1 MOL      0.024974
    165 H76       -12.4830   -0.3070   -2.0200 hc        1 MOL      0.013786
    166 H77       -13.7240   -1.0570   -0.9620 hc        1 MOL      0.013786
    167 N15        -9.9280    1.9160    1.0320 n         1 MOL     -0.202336
    168 C54        -9.1720    2.7300    1.9500 c3        1 MOL     -0.266210
    169 H78        -9.1070    3.7470    1.5640 h1        1 MOL      0.109654
    170 H79        -9.6690    2.7420    2.9200 h1        1 MOL      0.109654
    171 H80        -8.1690    2.3190    2.0600 h1        1 MOL      0.109654
    172 H81       -10.5110    2.3820    0.3480 hn        1 MOL      0.231767
    173 Ca1         2.4420    0.2920   -1.1640 Ca        1 MOL      1.789729
    174 O23        -0.2730    0.0040   -1.9480 oh        1 MOL     -0.872778
    175 H82        -0.8650    0.5290   -1.4100 ho        1 MOL      0.441896
    176 H83        -0.8400   -0.4310   -2.5900 ho        1 MOL      0.441896
@<TRIPOS>BOND
     1    1    2 1   
     2    1    4 1   
     3    1    5 1   
     4    1    6 1   
     5    2    3 2   
     6    2    7 1   
     7    7    8 1   
     8    7   15 1   
     9    8    9 1   
    10    8   11 1   
    11    8   16 1   
    12    9   10 2   
    13    9   19 1   
    14   11   12 1   
    15   11   17 1   
    16   11   18 1   
    17   12   13 1   
    18   12   14 1   
    19   19   20 1   
    20   19   28 1   
    21   20   21 1   
    22   20   23 1   
    23   20   29 1   
    24   21   22 2   
    25   21   41 1   
    26   23   24 1   
    27   23   30 1   
    28   23   31 1   
    29   24   25 1   
    30   24   32 1   
    31   24   33 1   
    32   25   26 1   
    33   25   34 1   
    34   25   35 1   
    35   26   27 1   
    36   26   36 1   
    37   26   37 1   
    38   27   38 1   
    39   27   39 1   
    40   27   40 1   
    41   41   42 1   
    42   41   49 1   
    43   42   43 1   
    44   42   45 1   
    45   42   50 1   
    46   43   44 2   
    47   43   53 1   
    48   45   46 1   
    49   45   51 1   
    50   45   52 1   
    51   46   47 1   
    52   46   48 1   
    53   53   54 1   
    54   53   57 1   
    55   54   55 1   
    56   54   58 1   
    57   54   59 1   
    58   55   56 2   
    59   55   60 1   
    60   60   61 1   
    61   60   68 1   
    62   61   62 1   
    63   61   64 1   
    64   61   69 1   
    65   62   63 2   
    66   62   74 1   
    67   64   65 1   
    68   64   70 1   
    69   64   71 1   
    70   65   66 1   
    71   65   67 2   
    72   66   72 1   
    73   66   73 1   
    74   74   75 1   
    75   74   78 1   
    76   75   76 1   
    77   75   79 1   
    78   75   80 1   
    79   76   77 2   
    80   76   81 1   
    81   81   82 1   
    82   81   93 1   
    83   82   83 1   
    84   82   85 1   
    85   82   94 1   
    86   83   84 2   
    87   83  102 1   
    88   85   86 1   
    89   85   95 1   
    90   85   96 1   
    91   86   87 ar  
    92   86   88 ar  
    93   87   89 ar  
    94   87   97 1   
    95   88   90 ar  
    96   88   98 1   
    97   89   91 ar  
    98   89   99 1   
    99   90   91 ar  
   100   90  100 1   
   101   91   92 1   
   102   92  101 1   
   103  102  103 1   
   104  102  110 1   
   105  103  104 1   
   106  103  106 1   
   107  103  111 1   
   108  104  105 2   
   109  104  121 1   
   110  106  107 1   
   111  106  108 1   
   112  106  112 1   
   113  107  109 1   
   114  107  113 1   
   115  107  114 1   
   116  108  115 1   
   117  108  116 1   
   118  108  117 1   
   119  109  118 1   
   120  109  119 1   
   121  109  120 1   
   122  121  122 1   
   123  121  127 1   
   124  122  123 1   
   125  122  125 1   
   126  122  128 1   
   127  123  124 2   
   128  123  132 1   
   129  125  126 1   
   130  125  129 1   
   131  125  130 1   
   132  126  131 1   
   133  132  133 1   
   134  132  137 1   
   135  133  134 1   
   136  133  136 1   
   137  133  138 1   
   138  134  135 2   
   139  134  142 1   
   140  136  139 1   
   141  136  140 1   
   142  136  141 1   
   143  142  143 1   
   144  142  147 1   
   145  143  144 1   
   146  143  146 1   
   147  143  148 1   
   148  144  145 2   
   149  144  152 1   
   150  146  149 1   
   151  146  150 1   
   152  146  151 1   
   153  152  153 1   
   154  152  161 1   
   155  153  154 1   
   156  153  156 1   
   157  153  162 1   
   158  154  155 2   
   159  154  167 1   
   160  156  157 1   
   161  156  163 1   
   162  156  164 1   
   163  157  158 1   
   164  157  165 1   
   165  157  166 1   
   166  158  159 1   
   167  158  160 1   
   168  167  168 1   
   169  167  172 1   
   170  168  169 1   
   171  168  170 1   
   172  168  171 1   
   173  174  175 1   
   174  174  176 1   
@<TRIPOS>SUBSTRUCTURE
     1 MOL         1 TEMP              0 ****  ****    0 ROOT
